20220309-structures drawed for LXR-18292-203-better than 18292(68).sdf
  MOE2020           2D

 40 44  0  0  1  0  0  0  0  0999 V2000
   -1.8320   -0.1460    0.0000 C   0  0  0  0  0  0  0  0  0  0  0  0
   -1.8320   -0.9700    0.0000 C   0  0  0  0  0  0  0  0  0  0  0  0
   -1.1170   -1.3830    0.0000 C   0  0  0  0  0  0  0  0  0  0  0  0
   -0.4030   -0.9700    0.0000 C   0  0  0  0  0  0  0  0  0  0  0  0
   -0.4030   -0.1460    0.0000 C   0  0  0  0  0  0  0  0  0  0  0  0
   -1.1170    0.2670    0.0000 C   0  0  0  0  0  0  0  0  0  0  0  0
    0.3120   -1.3830    0.0000 C   0  0  1  0  0  0  0  0  0  0  0  0
    1.0260   -0.9700    0.0000 C   0  0  1  0  0  0  0  0  0  0  0  0
    1.0260   -0.1460    0.0000 C   0  0  1  0  0  0  0  0  0  0  0  0
    0.3120    0.2670    0.0000 C   0  0  0  0  0  0  0  0  0  0  0  0
    1.9300   -0.3170    0.0000 N   0  0  0  0  0  0  0  0  0  0  0  0
    1.3950   -2.0130    0.0000 C   0  0  0  0  0  0  0  0  0  0  0  0
   -0.1010   -2.0970    0.0000 C   0  0  0  0  0  0  0  0  0  0  0  0
    2.0890   -1.6060    0.0000 C   0  0  0  0  0  0  0  0  0  0  0  0
    1.7380   -1.3810    0.0000 C   0  0  0  0  0  0  0  0  0  0  0  0
    2.5290    0.2450    0.0000 C   0  0  1  0  0  0  0  0  0  0  0  0
    3.3170    0.0070    0.0000 C   0  0  0  0  0  0  0  0  0  0  0  0
    3.5040   -0.7960    0.0000 C   0  0  0  0  0  0  0  0  0  0  0  0
    4.2930   -1.0350    0.0000 C   0  0  0  0  0  0  0  0  0  0  0  0
    4.8960   -0.4720    0.0000 C   0  0  0  0  0  0  0  0  0  0  0  0
    4.7080    0.3320    0.0000 C   0  0  0  0  0  0  0  0  0  0  0  0
    3.9180    0.5710    0.0000 C   0  0  0  0  0  0  0  0  0  0  0  0
    5.6830   -0.7100    0.0000 F   0  0  0  0  0  0  0  0  0  0  0  0
    3.7310    1.3740    0.0000 Cl  0  0  0  0  0  0  0  0  0  0  0  0
   -2.5440   -1.3820    0.0000 N   0  0  0  0  0  0  0  0  0  0  0  0
    2.3420    1.0480    0.0000 C   0  0  0  0  0  0  0  0  0  0  0  0
    2.9440    1.6130    0.0000 C   0  0  0  0  0  0  0  0  0  0  0  0
   -3.2580   -0.9690    0.0000 C   0  0  0  0  0  0  0  0  0  0  0  0
   -3.9730   -1.3820    0.0000 C   0  0  0  0  0  0  0  0  0  0  0  0
   -4.7270   -1.0470    0.0000 C   0  0  0  0  0  0  0  0  0  0  0  0
   -5.2780   -1.6600    0.0000 N   0  0  0  0  0  0  0  0  0  0  0  0
   -4.8660   -2.3750    0.0000 N   0  0  0  0  0  0  0  0  0  0  0  0
   -4.0590   -2.2030    0.0000 C   0  0  0  0  0  0  0  0  0  0  0  0
   -4.8980   -0.2400    0.0000 C   0  0  0  0  0  0  0  0  0  0  0  0
   -5.6830    0.0150    0.0000 O   0  0  0  0  0  0  0  0  0  0  0  0
   -4.2850    0.3120    0.0000 N   0  0  0  0  0  0  0  0  0  0  0  0
   -4.2850    1.1370    0.0000 C   0  0  0  0  0  0  0  0  0  0  0  0
   -3.5700    1.5500    0.0000 C   0  0  0  0  0  0  0  0  0  0  0  0
   -3.5700    2.3750    0.0000 O   0  0  0  0  0  0  0  0  0  0  0  0
   -2.8560    1.1370    0.0000 O   0  0  0  0  0  0  0  0  0  0  0  0
  1  2  2  0  0  0  0
  1  6  1  0  0  0  0
  2  3  1  0  0  0  0
  2 25  1  0  0  0  0
  3  4  2  0  0  0  0
  4  5  1  0  0  0  0
  4  7  1  0  0  0  0
  5  6  2  0  0  0  0
  5 10  1  0  0  0  0
  7  8  1  0  0  0  0
  7 12  1  0  0  0  0
  7 13  1  6  0  0  0
  8  9  1  0  0  0  0
  8 15  1  1  0  0  0
  9 10  1  0  0  0  0
  9 11  1  1  0  0  0
 11 14  1  0  0  0  0
 11 16  1  0  0  0  0
 12 14  1  0  0  0  0
 16 17  1  6  0  0  0
 16 26  1  0  0  0  0
 17 18  1  0  0  0  0
 17 22  2  0  0  0  0
 18 19  2  0  0  0  0
 19 20  1  0  0  0  0
 20 21  2  0  0  0  0
 20 23  1  0  0  0  0
 21 22  1  0  0  0  0
 22 24  1  0  0  0  0
 25 28  1  0  0  0  0
 26 27  1  0  0  0  0
 28 29  1  0  0  0  0
 29 30  1  0  0  0  0
 29 33  2  0  0  0  0
 30 31  2  0  0  0  0
 30 34  1  0  0  0  0
 31 32  1  0  0  0  0
 32 33  1  0  0  0  0
 34 35  2  0  0  0  0
 34 36  1  0  0  0  0
 36 37  1  0  0  0  0
 37 38  1  0  0  0  0
 38 39  1  0  0  0  0
 38 40  2  0  0  0  0
M  END
$$$$
20220309-structures drawed for LXR-18292-203-better than 18292(68).sdf
  MOE2020           2D

 41 45  0  0  1  0  0  0  0  0999 V2000
   -1.8320   -0.3520    0.0000 C   0  0  0  0  0  0  0  0  0  0  0  0
   -1.8320   -1.1770    0.0000 C   0  0  0  0  0  0  0  0  0  0  0  0
   -1.1170   -1.5890    0.0000 C   0  0  0  0  0  0  0  0  0  0  0  0
   -0.4030   -1.1770    0.0000 C   0  0  0  0  0  0  0  0  0  0  0  0
   -0.4030   -0.3520    0.0000 C   0  0  0  0  0  0  0  0  0  0  0  0
   -1.1170    0.0610    0.0000 C   0  0  0  0  0  0  0  0  0  0  0  0
    0.3120   -1.5890    0.0000 C   0  0  1  0  0  0  0  0  0  0  0  0
    1.0260   -1.1770    0.0000 C   0  0  1  0  0  0  0  0  0  0  0  0
    1.0260   -0.3520    0.0000 C   0  0  1  0  0  0  0  0  0  0  0  0
    0.3120    0.0610    0.0000 C   0  0  0  0  0  0  0  0  0  0  0  0
    1.9300   -0.5230    0.0000 N   0  0  0  0  0  0  0  0  0  0  0  0
    1.3950   -2.2200    0.0000 C   0  0  0  0  0  0  0  0  0  0  0  0
   -0.1010   -2.3040    0.0000 C   0  0  0  0  0  0  0  0  0  0  0  0
    2.0890   -1.8130    0.0000 C   0  0  0  0  0  0  0  0  0  0  0  0
    1.7380   -1.5880    0.0000 C   0  0  0  0  0  0  0  0  0  0  0  0
    2.5290    0.0390    0.0000 C   0  0  1  0  0  0  0  0  0  0  0  0
    3.3170   -0.1990    0.0000 C   0  0  0  0  0  0  0  0  0  0  0  0
    3.5040   -1.0030    0.0000 C   0  0  0  0  0  0  0  0  0  0  0  0
    4.2930   -1.2420    0.0000 C   0  0  0  0  0  0  0  0  0  0  0  0
    4.8960   -0.6780    0.0000 C   0  0  0  0  0  0  0  0  0  0  0  0
    4.7080    0.1260    0.0000 C   0  0  0  0  0  0  0  0  0  0  0  0
    3.9180    0.3650    0.0000 C   0  0  0  0  0  0  0  0  0  0  0  0
    5.6830   -0.9160    0.0000 F   0  0  0  0  0  0  0  0  0  0  0  0
    3.7310    1.1680    0.0000 Cl  0  0  0  0  0  0  0  0  0  0  0  0
   -2.5440   -1.5880    0.0000 N   0  0  0  0  0  0  0  0  0  0  0  0
    2.3420    0.8420    0.0000 C   0  0  0  0  0  0  0  0  0  0  0  0
    2.9440    1.4060    0.0000 C   0  0  0  0  0  0  0  0  0  0  0  0
   -3.2580   -1.1760    0.0000 C   0  0  0  0  0  0  0  0  0  0  0  0
   -3.9730   -1.5890    0.0000 C   0  0  0  0  0  0  0  0  0  0  0  0
   -4.7270   -1.2530    0.0000 C   0  0  0  0  0  0  0  0  0  0  0  0
   -5.2780   -1.8670    0.0000 N   0  0  0  0  0  0  0  0  0  0  0  0
   -4.8660   -2.5810    0.0000 N   0  0  0  0  0  0  0  0  0  0  0  0
   -4.0590   -2.4090    0.0000 C   0  0  0  0  0  0  0  0  0  0  0  0
   -4.8980   -0.4460    0.0000 C   0  0  0  0  0  0  0  0  0  0  0  0
   -5.6830   -0.1910    0.0000 O   0  0  0  0  0  0  0  0  0  0  0  0
   -4.2850    0.1060    0.0000 N   0  0  0  0  0  0  0  0  0  0  0  0
   -4.2850    0.9310    0.0000 C   0  0  0  0  0  0  0  0  0  0  0  0
   -3.5700    1.3440    0.0000 C   0  0  0  0  0  0  0  0  0  0  0  0
   -3.5700    2.1680    0.0000 C   0  0  0  0  0  0  0  0  0  0  0  0
   -2.8560    2.5810    0.0000 O   0  0  0  0  0  0  0  0  0  0  0  0
   -4.2850    2.5810    0.0000 O   0  0  0  0  0  0  0  0  0  0  0  0
  1  2  2  0  0  0  0
  1  6  1  0  0  0  0
  2  3  1  0  0  0  0
  2 25  1  0  0  0  0
  3  4  2  0  0  0  0
  4  5  1  0  0  0  0
  4  7  1  0  0  0  0
  5  6  2  0  0  0  0
  5 10  1  0  0  0  0
  7  8  1  0  0  0  0
  7 12  1  0  0  0  0
  7 13  1  6  0  0  0
  8  9  1  0  0  0  0
  8 15  1  1  0  0  0
  9 10  1  0  0  0  0
  9 11  1  1  0  0  0
 11 14  1  0  0  0  0
 11 16  1  0  0  0  0
 12 14  1  0  0  0  0
 16 17  1  6  0  0  0
 16 26  1  0  0  0  0
 17 18  1  0  0  0  0
 17 22  2  0  0  0  0
 18 19  2  0  0  0  0
 19 20  1  0  0  0  0
 20 21  2  0  0  0  0
 20 23  1  0  0  0  0
 21 22  1  0  0  0  0
 22 24  1  0  0  0  0
 25 28  1  0  0  0  0
 26 27  1  0  0  0  0
 28 29  1  0  0  0  0
 29 30  1  0  0  0  0
 29 33  2  0  0  0  0
 30 31  2  0  0  0  0
 30 34  1  0  0  0  0
 31 32  1  0  0  0  0
 32 33  1  0  0  0  0
 34 35  2  0  0  0  0
 34 36  1  0  0  0  0
 36 37  1  0  0  0  0
 37 38  1  0  0  0  0
 38 39  1  0  0  0  0
 39 40  1  0  0  0  0
 39 41  2  0  0  0  0
M  END
$$$$
20220309-structures drawed for LXR-18292-203-better than 18292(68).sdf
  MOE2020           2D

 38 43  0  0  1  0  0  0  0  0999 V2000
   -1.8470    0.2360    0.0000 C   0  0  0  0  0  0  0  0  0  0  0  0
   -1.8470   -0.5900    0.0000 C   0  0  0  0  0  0  0  0  0  0  0  0
   -1.1330   -1.0020    0.0000 C   0  0  0  0  0  0  0  0  0  0  0  0
   -0.4180   -0.5900    0.0000 C   0  0  0  0  0  0  0  0  0  0  0  0
   -0.4180    0.2360    0.0000 C   0  0  0  0  0  0  0  0  0  0  0  0
   -1.1330    0.6480    0.0000 C   0  0  0  0  0  0  0  0  0  0  0  0
    0.2960   -1.0020    0.0000 C   0  0  1  0  0  0  0  0  0  0  0  0
    1.0100   -0.5900    0.0000 C   0  0  1  0  0  0  0  0  0  0  0  0
    1.0100    0.2360    0.0000 C   0  0  1  0  0  0  0  0  0  0  0  0
    0.2960    0.6480    0.0000 C   0  0  0  0  0  0  0  0  0  0  0  0
    1.9140    0.0640    0.0000 N   0  0  0  0  0  0  0  0  0  0  0  0
    1.3790   -1.6320    0.0000 C   0  0  0  0  0  0  0  0  0  0  0  0
   -0.1170   -1.7160    0.0000 C   0  0  0  0  0  0  0  0  0  0  0  0
    2.0740   -1.2260    0.0000 C   0  0  0  0  0  0  0  0  0  0  0  0
    1.7220   -1.0000    0.0000 C   0  0  0  0  0  0  0  0  0  0  0  0
    2.5140    0.6260    0.0000 C   0  0  1  0  0  0  0  0  0  0  0  0
    3.3010    0.3880    0.0000 C   0  0  0  0  0  0  0  0  0  0  0  0
    3.4880   -0.4150    0.0000 C   0  0  0  0  0  0  0  0  0  0  0  0
    4.2780   -0.6540    0.0000 C   0  0  0  0  0  0  0  0  0  0  0  0
    4.8800   -0.0900    0.0000 C   0  0  0  0  0  0  0  0  0  0  0  0
    4.6920    0.7130    0.0000 C   0  0  0  0  0  0  0  0  0  0  0  0
    3.9020    0.9520    0.0000 C   0  0  0  0  0  0  0  0  0  0  0  0
    5.6670   -0.3290    0.0000 F   0  0  0  0  0  0  0  0  0  0  0  0
    3.7150    1.7550    0.0000 Cl  0  0  0  0  0  0  0  0  0  0  0  0
   -2.5600   -1.0010    0.0000 N   0  0  0  0  0  0  0  0  0  0  0  0
    2.3260    1.4290    0.0000 C   0  0  0  0  0  0  0  0  0  0  0  0
    2.9280    1.9940    0.0000 C   0  0  0  0  0  0  0  0  0  0  0  0
   -3.2740   -0.5890    0.0000 C   0  0  0  0  0  0  0  0  0  0  0  0
   -3.9880   -1.0020    0.0000 C   0  0  0  0  0  0  0  0  0  0  0  0
   -4.7420   -0.6660    0.0000 C   0  0  0  0  0  0  0  0  0  0  0  0
   -5.2940   -1.2790    0.0000 N   0  0  0  0  0  0  0  0  0  0  0  0
   -4.8820   -1.9940    0.0000 N   0  0  0  0  0  0  0  0  0  0  0  0
   -4.0740   -1.8220    0.0000 C   0  0  0  0  0  0  0  0  0  0  0  0
   -4.9140    0.1410    0.0000 C   0  0  0  0  0  0  0  0  0  0  0  0
   -4.3610    0.7530    0.0000 C   0  0  0  0  0  0  0  0  0  0  0  0
   -4.7740    1.4680    0.0000 N   0  0  0  0  0  0  0  0  0  0  0  0
   -5.5800    1.2970    0.0000 N   0  0  0  0  0  0  0  0  0  0  0  0
   -5.6670    0.4770    0.0000 C   0  0  0  0  0  0  0  0  0  0  0  0
  1  2  2  0  0  0  0
  1  6  1  0  0  0  0
  2  3  1  0  0  0  0
  2 25  1  0  0  0  0
  3  4  2  0  0  0  0
  4  5  1  0  0  0  0
  4  7  1  0  0  0  0
  5  6  2  0  0  0  0
  5 10  1  0  0  0  0
  7  8  1  0  0  0  0
  7 12  1  0  0  0  0
  7 13  1  6  0  0  0
  8  9  1  0  0  0  0
  8 15  1  1  0  0  0
  9 10  1  0  0  0  0
  9 11  1  1  0  0  0
 11 14  1  0  0  0  0
 11 16  1  0  0  0  0
 12 14  1  0  0  0  0
 16 17  1  6  0  0  0
 16 26  1  0  0  0  0
 17 18  1  0  0  0  0
 17 22  2  0  0  0  0
 18 19  2  0  0  0  0
 19 20  1  0  0  0  0
 20 21  2  0  0  0  0
 20 23  1  0  0  0  0
 21 22  1  0  0  0  0
 22 24  1  0  0  0  0
 25 28  1  0  0  0  0
 26 27  1  0  0  0  0
 28 29  1  0  0  0  0
 29 30  1  0  0  0  0
 29 33  2  0  0  0  0
 30 31  2  0  0  0  0
 30 34  1  0  0  0  0
 31 32  1  0  0  0  0
 32 33  1  0  0  0  0
 34 35  2  0  0  0  0
 34 38  1  0  0  0  0
 35 36  1  0  0  0  0
 36 37  1  0  0  0  0
 37 38  2  0  0  0  0
M  END
$$$$
20220309-structures drawed for LXR-18292-203-better than 18292(68).sdf
  MOE2020           2D

 38 43  0  0  1  0  0  0  0  0999 V2000
   -1.8470    0.2360    0.0000 C   0  0  0  0  0  0  0  0  0  0  0  0
   -1.8470   -0.5900    0.0000 C   0  0  0  0  0  0  0  0  0  0  0  0
   -1.1330   -1.0020    0.0000 C   0  0  0  0  0  0  0  0  0  0  0  0
   -0.4180   -0.5900    0.0000 C   0  0  0  0  0  0  0  0  0  0  0  0
   -0.4180    0.2360    0.0000 C   0  0  0  0  0  0  0  0  0  0  0  0
   -1.1330    0.6480    0.0000 C   0  0  0  0  0  0  0  0  0  0  0  0
    0.2960   -1.0020    0.0000 C   0  0  1  0  0  0  0  0  0  0  0  0
    1.0100   -0.5900    0.0000 C   0  0  1  0  0  0  0  0  0  0  0  0
    1.0100    0.2360    0.0000 C   0  0  1  0  0  0  0  0  0  0  0  0
    0.2960    0.6480    0.0000 C   0  0  0  0  0  0  0  0  0  0  0  0
    1.9140    0.0640    0.0000 N   0  0  0  0  0  0  0  0  0  0  0  0
    1.3790   -1.6320    0.0000 C   0  0  0  0  0  0  0  0  0  0  0  0
   -0.1170   -1.7160    0.0000 C   0  0  0  0  0  0  0  0  0  0  0  0
    2.0740   -1.2260    0.0000 C   0  0  0  0  0  0  0  0  0  0  0  0
    1.7220   -1.0000    0.0000 C   0  0  0  0  0  0  0  0  0  0  0  0
    2.5140    0.6260    0.0000 C   0  0  1  0  0  0  0  0  0  0  0  0
    3.3010    0.3880    0.0000 C   0  0  0  0  0  0  0  0  0  0  0  0
    3.4880   -0.4150    0.0000 C   0  0  0  0  0  0  0  0  0  0  0  0
    4.2780   -0.6540    0.0000 C   0  0  0  0  0  0  0  0  0  0  0  0
    4.8800   -0.0900    0.0000 C   0  0  0  0  0  0  0  0  0  0  0  0
    4.6920    0.7130    0.0000 C   0  0  0  0  0  0  0  0  0  0  0  0
    3.9020    0.9520    0.0000 C   0  0  0  0  0  0  0  0  0  0  0  0
    5.6670   -0.3290    0.0000 F   0  0  0  0  0  0  0  0  0  0  0  0
    3.7150    1.7550    0.0000 Cl  0  0  0  0  0  0  0  0  0  0  0  0
   -2.5600   -1.0010    0.0000 N   0  0  0  0  0  0  0  0  0  0  0  0
    2.3260    1.4290    0.0000 C   0  0  0  0  0  0  0  0  0  0  0  0
    2.9280    1.9940    0.0000 C   0  0  0  0  0  0  0  0  0  0  0  0
   -3.2740   -0.5890    0.0000 C   0  0  0  0  0  0  0  0  0  0  0  0
   -3.9880   -1.0020    0.0000 C   0  0  0  0  0  0  0  0  0  0  0  0
   -4.7420   -0.6660    0.0000 C   0  0  0  0  0  0  0  0  0  0  0  0
   -5.2940   -1.2790    0.0000 N   0  0  0  0  0  0  0  0  0  0  0  0
   -4.8820   -1.9940    0.0000 N   0  0  0  0  0  0  0  0  0  0  0  0
   -4.0740   -1.8220    0.0000 C   0  0  0  0  0  0  0  0  0  0  0  0
   -4.9140    0.1410    0.0000 C   0  0  0  0  0  0  0  0  0  0  0  0
   -4.3610    0.7530    0.0000 N   0  0  0  0  0  0  0  0  0  0  0  0
   -4.7740    1.4680    0.0000 N   0  0  0  0  0  0  0  0  0  0  0  0
   -5.5800    1.2970    0.0000 N   0  0  0  0  0  0  0  0  0  0  0  0
   -5.6670    0.4770    0.0000 C   0  0  0  0  0  0  0  0  0  0  0  0
  1  2  2  0  0  0  0
  1  6  1  0  0  0  0
  2  3  1  0  0  0  0
  2 25  1  0  0  0  0
  3  4  2  0  0  0  0
  4  5  1  0  0  0  0
  4  7  1  0  0  0  0
  5  6  2  0  0  0  0
  5 10  1  0  0  0  0
  7  8  1  0  0  0  0
  7 12  1  0  0  0  0
  7 13  1  6  0  0  0
  8  9  1  0  0  0  0
  8 15  1  1  0  0  0
  9 10  1  0  0  0  0
  9 11  1  1  0  0  0
 11 14  1  0  0  0  0
 11 16  1  0  0  0  0
 12 14  1  0  0  0  0
 16 17  1  6  0  0  0
 16 26  1  0  0  0  0
 17 18  1  0  0  0  0
 17 22  2  0  0  0  0
 18 19  2  0  0  0  0
 19 20  1  0  0  0  0
 20 21  2  0  0  0  0
 20 23  1  0  0  0  0
 21 22  1  0  0  0  0
 22 24  1  0  0  0  0
 25 28  1  0  0  0  0
 26 27  1  0  0  0  0
 28 29  1  0  0  0  0
 29 30  1  0  0  0  0
 29 33  2  0  0  0  0
 30 31  2  0  0  0  0
 30 34  1  0  0  0  0
 31 32  1  0  0  0  0
 32 33  1  0  0  0  0
 34 35  1  0  0  0  0
 34 38  2  0  0  0  0
 35 36  1  0  0  0  0
 36 37  2  0  0  0  0
 37 38  1  0  0  0  0
M  END
$$$$
20220309-structures drawed for LXR-18292-203-better than 18292(68).sdf
  MOE2020           2D

 40 45  0  0  1  0  0  0  0  0999 V2000
   -1.7460    0.2360    0.0000 C   0  0  0  0  0  0  0  0  0  0  0  0
   -1.7460   -0.5900    0.0000 C   0  0  0  0  0  0  0  0  0  0  0  0
   -1.0320   -1.0020    0.0000 C   0  0  0  0  0  0  0  0  0  0  0  0
   -0.3170   -0.5900    0.0000 C   0  0  0  0  0  0  0  0  0  0  0  0
   -0.3170    0.2360    0.0000 C   0  0  0  0  0  0  0  0  0  0  0  0
   -1.0320    0.6480    0.0000 C   0  0  0  0  0  0  0  0  0  0  0  0
    0.3970   -1.0020    0.0000 C   0  0  1  0  0  0  0  0  0  0  0  0
    1.1120   -0.5900    0.0000 C   0  0  1  0  0  0  0  0  0  0  0  0
    1.1120    0.2360    0.0000 C   0  0  1  0  0  0  0  0  0  0  0  0
    0.3970    0.6480    0.0000 C   0  0  0  0  0  0  0  0  0  0  0  0
    2.0150    0.0640    0.0000 N   0  0  0  0  0  0  0  0  0  0  0  0
    1.4800   -1.6320    0.0000 C   0  0  0  0  0  0  0  0  0  0  0  0
   -0.0160   -1.7160    0.0000 C   0  0  0  0  0  0  0  0  0  0  0  0
    2.1750   -1.2260    0.0000 C   0  0  0  0  0  0  0  0  0  0  0  0
    1.8240   -1.0000    0.0000 C   0  0  0  0  0  0  0  0  0  0  0  0
    2.6150    0.6260    0.0000 C   0  0  1  0  0  0  0  0  0  0  0  0
    3.4020    0.3880    0.0000 C   0  0  0  0  0  0  0  0  0  0  0  0
    3.5890   -0.4150    0.0000 C   0  0  0  0  0  0  0  0  0  0  0  0
    4.3790   -0.6540    0.0000 C   0  0  0  0  0  0  0  0  0  0  0  0
    4.9810   -0.0900    0.0000 C   0  0  0  0  0  0  0  0  0  0  0  0
    4.7930    0.7130    0.0000 C   0  0  0  0  0  0  0  0  0  0  0  0
    4.0040    0.9520    0.0000 C   0  0  0  0  0  0  0  0  0  0  0  0
    5.7680   -0.3290    0.0000 F   0  0  0  0  0  0  0  0  0  0  0  0
    3.8160    1.7550    0.0000 Cl  0  0  0  0  0  0  0  0  0  0  0  0
   -2.4580   -1.0010    0.0000 N   0  0  0  0  0  0  0  0  0  0  0  0
    2.4270    1.4290    0.0000 C   0  0  0  0  0  0  0  0  0  0  0  0
    3.0290    1.9940    0.0000 C   0  0  0  0  0  0  0  0  0  0  0  0
   -3.1730   -0.5890    0.0000 C   0  0  0  0  0  0  0  0  0  0  0  0
   -3.8870   -1.0020    0.0000 C   0  0  0  0  0  0  0  0  0  0  0  0
   -4.6410   -0.6660    0.0000 C   0  0  0  0  0  0  0  0  0  0  0  0
   -5.1930   -1.2790    0.0000 N   0  0  0  0  0  0  0  0  0  0  0  0
   -4.7800   -1.9940    0.0000 N   0  0  0  0  0  0  0  0  0  0  0  0
   -3.9730   -1.8220    0.0000 C   0  0  0  0  0  0  0  0  0  0  0  0
   -4.8120    0.1410    0.0000 N   0  0  0  0  0  0  0  0  0  0  0  0
   -4.1990    0.6930    0.0000 C   0  0  0  0  0  0  0  0  0  0  0  0
   -4.3700    1.4990    0.0000 C   0  0  0  0  0  0  0  0  0  0  0  0
   -5.1550    1.7550    0.0000 C   0  0  0  0  0  0  0  0  0  0  0  0
   -5.7680    1.2030    0.0000 C   0  0  0  0  0  0  0  0  0  0  0  0
   -5.5970    0.3960    0.0000 C   0  0  0  0  0  0  0  0  0  0  0  0
   -3.4150    0.4370    0.0000 O   0  0  0  0  0  0  0  0  0  0  0  0
  1  2  2  0  0  0  0
  1  6  1  0  0  0  0
  2  3  1  0  0  0  0
  2 25  1  0  0  0  0
  3  4  2  0  0  0  0
  4  5  1  0  0  0  0
  4  7  1  0  0  0  0
  5  6  2  0  0  0  0
  5 10  1  0  0  0  0
  7  8  1  0  0  0  0
  7 12  1  0  0  0  0
  7 13  1  6  0  0  0
  8  9  1  0  0  0  0
  8 15  1  1  0  0  0
  9 10  1  0  0  0  0
  9 11  1  1  0  0  0
 11 14  1  0  0  0  0
 11 16  1  0  0  0  0
 12 14  1  0  0  0  0
 16 17  1  6  0  0  0
 16 26  1  0  0  0  0
 17 18  1  0  0  0  0
 17 22  2  0  0  0  0
 18 19  2  0  0  0  0
 19 20  1  0  0  0  0
 20 21  2  0  0  0  0
 20 23  1  0  0  0  0
 21 22  1  0  0  0  0
 22 24  1  0  0  0  0
 25 28  1  0  0  0  0
 26 27  1  0  0  0  0
 28 29  1  0  0  0  0
 29 30  1  0  0  0  0
 29 33  2  0  0  0  0
 30 31  2  0  0  0  0
 30 34  1  0  0  0  0
 31 32  1  0  0  0  0
 32 33  1  0  0  0  0
 34 35  1  0  0  0  0
 34 39  1  0  0  0  0
 35 36  1  0  0  0  0
 35 40  2  0  0  0  0
 36 37  1  0  0  0  0
 37 38  1  0  0  0  0
 38 39  1  0  0  0  0
M  END
$$$$
20220309-structures drawed for LXR-18292-203-better than 18292(68).sdf
  MOE2020           2D

 39 44  0  0  1  0  0  0  0  0999 V2000
   -1.8470    0.2360    0.0000 C   0  0  0  0  0  0  0  0  0  0  0  0
   -1.8470   -0.5900    0.0000 C   0  0  0  0  0  0  0  0  0  0  0  0
   -1.1330   -1.0020    0.0000 C   0  0  0  0  0  0  0  0  0  0  0  0
   -0.4180   -0.5900    0.0000 C   0  0  0  0  0  0  0  0  0  0  0  0
   -0.4180    0.2360    0.0000 C   0  0  0  0  0  0  0  0  0  0  0  0
   -1.1330    0.6480    0.0000 C   0  0  0  0  0  0  0  0  0  0  0  0
    0.2960   -1.0020    0.0000 C   0  0  1  0  0  0  0  0  0  0  0  0
    1.0100   -0.5900    0.0000 C   0  0  1  0  0  0  0  0  0  0  0  0
    1.0100    0.2360    0.0000 C   0  0  1  0  0  0  0  0  0  0  0  0
    0.2960    0.6480    0.0000 C   0  0  0  0  0  0  0  0  0  0  0  0
    1.9140    0.0640    0.0000 N   0  0  0  0  0  0  0  0  0  0  0  0
    1.3790   -1.6320    0.0000 C   0  0  0  0  0  0  0  0  0  0  0  0
   -0.1170   -1.7160    0.0000 C   0  0  0  0  0  0  0  0  0  0  0  0
    2.0740   -1.2260    0.0000 C   0  0  0  0  0  0  0  0  0  0  0  0
    1.7220   -1.0000    0.0000 C   0  0  0  0  0  0  0  0  0  0  0  0
    2.5140    0.6260    0.0000 C   0  0  1  0  0  0  0  0  0  0  0  0
    3.3010    0.3880    0.0000 C   0  0  0  0  0  0  0  0  0  0  0  0
    3.4880   -0.4150    0.0000 C   0  0  0  0  0  0  0  0  0  0  0  0
    4.2780   -0.6540    0.0000 C   0  0  0  0  0  0  0  0  0  0  0  0
    4.8800   -0.0900    0.0000 C   0  0  0  0  0  0  0  0  0  0  0  0
    4.6920    0.7130    0.0000 C   0  0  0  0  0  0  0  0  0  0  0  0
    3.9020    0.9520    0.0000 C   0  0  0  0  0  0  0  0  0  0  0  0
    5.6670   -0.3290    0.0000 F   0  0  0  0  0  0  0  0  0  0  0  0
    3.7150    1.7550    0.0000 Cl  0  0  0  0  0  0  0  0  0  0  0  0
   -2.5600   -1.0010    0.0000 N   0  0  0  0  0  0  0  0  0  0  0  0
    2.3260    1.4290    0.0000 C   0  0  0  0  0  0  0  0  0  0  0  0
    2.9280    1.9940    0.0000 C   0  0  0  0  0  0  0  0  0  0  0  0
   -3.2740   -0.5890    0.0000 C   0  0  0  0  0  0  0  0  0  0  0  0
   -3.9880   -1.0020    0.0000 C   0  0  0  0  0  0  0  0  0  0  0  0
   -4.7420   -0.6660    0.0000 C   0  0  0  0  0  0  0  0  0  0  0  0
   -5.2940   -1.2790    0.0000 N   0  0  0  0  0  0  0  0  0  0  0  0
   -4.8820   -1.9940    0.0000 N   0  0  0  0  0  0  0  0  0  0  0  0
   -4.0740   -1.8220    0.0000 C   0  0  0  0  0  0  0  0  0  0  0  0
   -4.9140    0.1410    0.0000 N   0  0  0  0  0  0  0  0  0  0  0  0
   -4.3610    0.7530    0.0000 C   0  0  0  0  0  0  0  0  0  0  0  0
   -4.7740    1.4680    0.0000 C   0  0  0  0  0  0  0  0  0  0  0  0
   -5.5800    1.2970    0.0000 C   0  0  0  0  0  0  0  0  0  0  0  0
   -5.6670    0.4770    0.0000 C   0  0  0  0  0  0  0  0  0  0  0  0
   -3.5410    0.6670    0.0000 O   0  0  0  0  0  0  0  0  0  0  0  0
  1  2  2  0  0  0  0
  1  6  1  0  0  0  0
  2  3  1  0  0  0  0
  2 25  1  0  0  0  0
  3  4  2  0  0  0  0
  4  5  1  0  0  0  0
  4  7  1  0  0  0  0
  5  6  2  0  0  0  0
  5 10  1  0  0  0  0
  7  8  1  0  0  0  0
  7 12  1  0  0  0  0
  7 13  1  6  0  0  0
  8  9  1  0  0  0  0
  8 15  1  1  0  0  0
  9 10  1  0  0  0  0
  9 11  1  1  0  0  0
 11 14  1  0  0  0  0
 11 16  1  0  0  0  0
 12 14  1  0  0  0  0
 16 17  1  6  0  0  0
 16 26  1  0  0  0  0
 17 18  1  0  0  0  0
 17 22  2  0  0  0  0
 18 19  2  0  0  0  0
 19 20  1  0  0  0  0
 20 21  2  0  0  0  0
 20 23  1  0  0  0  0
 21 22  1  0  0  0  0
 22 24  1  0  0  0  0
 25 28  1  0  0  0  0
 26 27  1  0  0  0  0
 28 29  1  0  0  0  0
 29 30  1  0  0  0  0
 29 33  2  0  0  0  0
 30 31  2  0  0  0  0
 30 34  1  0  0  0  0
 31 32  1  0  0  0  0
 32 33  1  0  0  0  0
 34 35  1  0  0  0  0
 34 38  1  0  0  0  0
 35 36  1  0  0  0  0
 35 39  2  0  0  0  0
 36 37  1  0  0  0  0
 37 38  1  0  0  0  0
M  END
$$$$
20220309-structures drawed for LXR-18292-203-better than 18292(68).sdf
  MOE2020           2D

 38 42  0  0  1  0  0  0  0  0999 V2000
   -1.8320    0.2360    0.0000 C   0  0  0  0  0  0  0  0  0  0  0  0
   -1.8320   -0.5900    0.0000 C   0  0  0  0  0  0  0  0  0  0  0  0
   -1.1170   -1.0020    0.0000 C   0  0  0  0  0  0  0  0  0  0  0  0
   -0.4030   -0.5900    0.0000 C   0  0  0  0  0  0  0  0  0  0  0  0
   -0.4030    0.2360    0.0000 C   0  0  0  0  0  0  0  0  0  0  0  0
   -1.1170    0.6480    0.0000 C   0  0  0  0  0  0  0  0  0  0  0  0
    0.3120   -1.0020    0.0000 C   0  0  1  0  0  0  0  0  0  0  0  0
    1.0260   -0.5900    0.0000 C   0  0  1  0  0  0  0  0  0  0  0  0
    1.0260    0.2360    0.0000 C   0  0  1  0  0  0  0  0  0  0  0  0
    0.3120    0.6480    0.0000 C   0  0  0  0  0  0  0  0  0  0  0  0
    1.9300    0.0640    0.0000 N   0  0  0  0  0  0  0  0  0  0  0  0
    1.3950   -1.6320    0.0000 C   0  0  0  0  0  0  0  0  0  0  0  0
   -0.1010   -1.7160    0.0000 C   0  0  0  0  0  0  0  0  0  0  0  0
    2.0890   -1.2260    0.0000 C   0  0  0  0  0  0  0  0  0  0  0  0
    1.7380   -1.0000    0.0000 C   0  0  0  0  0  0  0  0  0  0  0  0
    2.5290    0.6260    0.0000 C   0  0  1  0  0  0  0  0  0  0  0  0
    3.3170    0.3880    0.0000 C   0  0  0  0  0  0  0  0  0  0  0  0
    3.5040   -0.4150    0.0000 C   0  0  0  0  0  0  0  0  0  0  0  0
    4.2930   -0.6540    0.0000 C   0  0  0  0  0  0  0  0  0  0  0  0
    4.8960   -0.0900    0.0000 C   0  0  0  0  0  0  0  0  0  0  0  0
    4.7080    0.7130    0.0000 C   0  0  0  0  0  0  0  0  0  0  0  0
    3.9180    0.9520    0.0000 C   0  0  0  0  0  0  0  0  0  0  0  0
    5.6830   -0.3290    0.0000 F   0  0  0  0  0  0  0  0  0  0  0  0
    3.7310    1.7550    0.0000 Cl  0  0  0  0  0  0  0  0  0  0  0  0
   -2.5440   -1.0010    0.0000 N   0  0  0  0  0  0  0  0  0  0  0  0
    2.3420    1.4290    0.0000 C   0  0  0  0  0  0  0  0  0  0  0  0
    2.9440    1.9940    0.0000 C   0  0  0  0  0  0  0  0  0  0  0  0
   -3.2580   -0.5890    0.0000 C   0  0  0  0  0  0  0  0  0  0  0  0
   -3.9730   -1.0020    0.0000 C   0  0  0  0  0  0  0  0  0  0  0  0
   -4.7270   -0.6660    0.0000 C   0  0  0  0  0  0  0  0  0  0  0  0
   -5.2780   -1.2790    0.0000 N   0  0  0  0  0  0  0  0  0  0  0  0
   -4.8660   -1.9940    0.0000 N   0  0  0  0  0  0  0  0  0  0  0  0
   -4.0590   -1.8220    0.0000 C   0  0  0  0  0  0  0  0  0  0  0  0
   -4.8980    0.1410    0.0000 C   0  0  0  0  0  0  0  0  0  0  0  0
   -4.2850    0.6930    0.0000 O   0  0  0  0  0  0  0  0  0  0  0  0
   -5.6830    0.3960    0.0000 O   0  0  0  0  0  0  0  0  0  0  0  0
   -4.2850    1.5180    0.0000 C   0  0  0  0  0  0  0  0  0  0  0  0
   -3.5700    1.9310    0.0000 C   0  0  0  0  0  0  0  0  0  0  0  0
  1  2  2  0  0  0  0
  1  6  1  0  0  0  0
  2  3  1  0  0  0  0
  2 25  1  0  0  0  0
  3  4  2  0  0  0  0
  4  5  1  0  0  0  0
  4  7  1  0  0  0  0
  5  6  2  0  0  0  0
  5 10  1  0  0  0  0
  7  8  1  0  0  0  0
  7 12  1  0  0  0  0
  7 13  1  6  0  0  0
  8  9  1  0  0  0  0
  8 15  1  1  0  0  0
  9 10  1  0  0  0  0
  9 11  1  1  0  0  0
 11 14  1  0  0  0  0
 11 16  1  0  0  0  0
 12 14  1  0  0  0  0
 16 17  1  6  0  0  0
 16 26  1  0  0  0  0
 17 18  1  0  0  0  0
 17 22  2  0  0  0  0
 18 19  2  0  0  0  0
 19 20  1  0  0  0  0
 20 21  2  0  0  0  0
 20 23  1  0  0  0  0
 21 22  1  0  0  0  0
 22 24  1  0  0  0  0
 25 28  1  0  0  0  0
 26 27  1  0  0  0  0
 28 29  1  0  0  0  0
 29 30  1  0  0  0  0
 29 33  2  0  0  0  0
 30 31  2  0  0  0  0
 30 34  1  0  0  0  0
 31 32  1  0  0  0  0
 32 33  1  0  0  0  0
 34 35  1  0  0  0  0
 34 36  2  0  0  0  0
 35 37  1  0  0  0  0
 37 38  1  0  0  0  0
M  END
$$$$
20220309-structures drawed for LXR-18292-203-better than 18292(68).sdf
  MOE2020           2D

 39 43  0  0  1  0  0  0  0  0999 V2000
   -1.6240    0.2360    0.0000 C   0  0  0  0  0  0  0  0  0  0  0  0
   -1.6240   -0.5900    0.0000 C   0  0  0  0  0  0  0  0  0  0  0  0
   -0.9090   -1.0020    0.0000 C   0  0  0  0  0  0  0  0  0  0  0  0
   -0.1950   -0.5900    0.0000 C   0  0  0  0  0  0  0  0  0  0  0  0
   -0.1950    0.2360    0.0000 C   0  0  0  0  0  0  0  0  0  0  0  0
   -0.9090    0.6480    0.0000 C   0  0  0  0  0  0  0  0  0  0  0  0
    0.5200   -1.0020    0.0000 C   0  0  1  0  0  0  0  0  0  0  0  0
    1.2340   -0.5900    0.0000 C   0  0  1  0  0  0  0  0  0  0  0  0
    1.2340    0.2360    0.0000 C   0  0  1  0  0  0  0  0  0  0  0  0
    0.5200    0.6480    0.0000 C   0  0  0  0  0  0  0  0  0  0  0  0
    2.1380    0.0640    0.0000 N   0  0  0  0  0  0  0  0  0  0  0  0
    1.6030   -1.6320    0.0000 C   0  0  0  0  0  0  0  0  0  0  0  0
    0.1070   -1.7160    0.0000 C   0  0  0  0  0  0  0  0  0  0  0  0
    2.2970   -1.2260    0.0000 C   0  0  0  0  0  0  0  0  0  0  0  0
    1.9460   -1.0000    0.0000 C   0  0  0  0  0  0  0  0  0  0  0  0
    2.7370    0.6260    0.0000 C   0  0  1  0  0  0  0  0  0  0  0  0
    3.5250    0.3880    0.0000 C   0  0  0  0  0  0  0  0  0  0  0  0
    3.7120   -0.4150    0.0000 C   0  0  0  0  0  0  0  0  0  0  0  0
    4.5010   -0.6540    0.0000 C   0  0  0  0  0  0  0  0  0  0  0  0
    5.1040   -0.0900    0.0000 C   0  0  0  0  0  0  0  0  0  0  0  0
    4.9160    0.7130    0.0000 C   0  0  0  0  0  0  0  0  0  0  0  0
    4.1260    0.9520    0.0000 C   0  0  0  0  0  0  0  0  0  0  0  0
    5.8910   -0.3290    0.0000 F   0  0  0  0  0  0  0  0  0  0  0  0
    3.9390    1.7550    0.0000 Cl  0  0  0  0  0  0  0  0  0  0  0  0
   -2.3360   -1.0010    0.0000 N   0  0  0  0  0  0  0  0  0  0  0  0
    2.5500    1.4290    0.0000 C   0  0  0  0  0  0  0  0  0  0  0  0
    3.1520    1.9940    0.0000 C   0  0  0  0  0  0  0  0  0  0  0  0
   -3.0500   -0.5890    0.0000 C   0  0  0  0  0  0  0  0  0  0  0  0
   -3.7650   -1.0020    0.0000 C   0  0  0  0  0  0  0  0  0  0  0  0
   -4.5190   -0.6660    0.0000 C   0  0  0  0  0  0  0  0  0  0  0  0
   -5.0700   -1.2790    0.0000 N   0  0  0  0  0  0  0  0  0  0  0  0
   -4.6580   -1.9940    0.0000 N   0  0  0  0  0  0  0  0  0  0  0  0
   -3.8510   -1.8220    0.0000 C   0  0  0  0  0  0  0  0  0  0  0  0
   -4.6900    0.1410    0.0000 C   0  0  0  0  0  0  0  0  0  0  0  0
   -4.0770    0.6930    0.0000 O   0  0  0  0  0  0  0  0  0  0  0  0
   -5.4750    0.3960    0.0000 O   0  0  0  0  0  0  0  0  0  0  0  0
   -4.0770    1.5180    0.0000 C   0  0  0  0  0  0  0  0  0  0  0  0
   -3.3620    1.9310    0.0000 C   0  0  0  0  0  0  0  0  0  0  0  0
   -5.8910   -1.1930    0.0000 C   0  0  0  0  0  0  0  0  0  0  0  0
  1  2  2  0  0  0  0
  1  6  1  0  0  0  0
  2  3  1  0  0  0  0
  2 25  1  0  0  0  0
  3  4  2  0  0  0  0
  4  5  1  0  0  0  0
  4  7  1  0  0  0  0
  5  6  2  0  0  0  0
  5 10  1  0  0  0  0
  7  8  1  0  0  0  0
  7 12  1  0  0  0  0
  7 13  1  6  0  0  0
  8  9  1  0  0  0  0
  8 15  1  1  0  0  0
  9 10  1  0  0  0  0
  9 11  1  1  0  0  0
 11 14  1  0  0  0  0
 11 16  1  0  0  0  0
 12 14  1  0  0  0  0
 16 17  1  6  0  0  0
 16 26  1  0  0  0  0
 17 18  1  0  0  0  0
 17 22  2  0  0  0  0
 18 19  2  0  0  0  0
 19 20  1  0  0  0  0
 20 21  2  0  0  0  0
 20 23  1  0  0  0  0
 21 22  1  0  0  0  0
 22 24  1  0  0  0  0
 25 28  1  0  0  0  0
 26 27  1  0  0  0  0
 28 29  1  0  0  0  0
 29 30  2  0  0  0  0
 29 33  1  0  0  0  0
 30 31  1  0  0  0  0
 30 34  1  0  0  0  0
 31 32  1  0  0  0  0
 31 39  1  0  0  0  0
 32 33  2  0  0  0  0
 34 35  1  0  0  0  0
 34 36  2  0  0  0  0
 35 37  1  0  0  0  0
 37 38  1  0  0  0  0
M  END
$$$$
20220309-structures drawed for LXR-18292-203-better than 18292(68).sdf
  MOE2020           2D

 40 44  0  0  1  0  0  0  0  0999 V2000
   -1.6240    0.4260    0.0000 C   0  0  0  0  0  0  0  0  0  0  0  0
   -1.6240   -0.3990    0.0000 C   0  0  0  0  0  0  0  0  0  0  0  0
   -0.9090   -0.8120    0.0000 C   0  0  0  0  0  0  0  0  0  0  0  0
   -0.1950   -0.3990    0.0000 C   0  0  0  0  0  0  0  0  0  0  0  0
   -0.1950    0.4260    0.0000 C   0  0  0  0  0  0  0  0  0  0  0  0
   -0.9090    0.8380    0.0000 C   0  0  0  0  0  0  0  0  0  0  0  0
    0.5200   -0.8120    0.0000 C   0  0  1  0  0  0  0  0  0  0  0  0
    1.2340   -0.3990    0.0000 C   0  0  1  0  0  0  0  0  0  0  0  0
    1.2340    0.4260    0.0000 C   0  0  1  0  0  0  0  0  0  0  0  0
    0.5200    0.8380    0.0000 C   0  0  0  0  0  0  0  0  0  0  0  0
    2.1380    0.2540    0.0000 N   0  0  0  0  0  0  0  0  0  0  0  0
    1.6030   -1.4420    0.0000 C   0  0  0  0  0  0  0  0  0  0  0  0
    0.1070   -1.5260    0.0000 C   0  0  0  0  0  0  0  0  0  0  0  0
    2.2970   -1.0350    0.0000 C   0  0  0  0  0  0  0  0  0  0  0  0
    1.9460   -0.8100    0.0000 C   0  0  0  0  0  0  0  0  0  0  0  0
    2.7370    0.8160    0.0000 C   0  0  1  0  0  0  0  0  0  0  0  0
    3.5250    0.5780    0.0000 C   0  0  0  0  0  0  0  0  0  0  0  0
    3.7120   -0.2250    0.0000 C   0  0  0  0  0  0  0  0  0  0  0  0
    4.5010   -0.4640    0.0000 C   0  0  0  0  0  0  0  0  0  0  0  0
    5.1040    0.1000    0.0000 C   0  0  0  0  0  0  0  0  0  0  0  0
    4.9160    0.9040    0.0000 C   0  0  0  0  0  0  0  0  0  0  0  0
    4.1260    1.1420    0.0000 C   0  0  0  0  0  0  0  0  0  0  0  0
    5.8910   -0.1390    0.0000 F   0  0  0  0  0  0  0  0  0  0  0  0
    3.9390    1.9460    0.0000 Cl  0  0  0  0  0  0  0  0  0  0  0  0
   -2.3360   -0.8110    0.0000 N   0  0  0  0  0  0  0  0  0  0  0  0
    2.5500    1.6200    0.0000 C   0  0  0  0  0  0  0  0  0  0  0  0
    3.1520    2.1840    0.0000 C   0  0  0  0  0  0  0  0  0  0  0  0
   -3.0500   -0.3990    0.0000 C   0  0  0  0  0  0  0  0  0  0  0  0
   -3.7650   -0.8110    0.0000 C   0  0  0  0  0  0  0  0  0  0  0  0
   -4.5190   -0.4760    0.0000 C   0  0  0  0  0  0  0  0  0  0  0  0
   -5.0700   -1.0890    0.0000 N   0  0  0  0  0  0  0  0  0  0  0  0
   -4.6580   -1.8040    0.0000 N   0  0  0  0  0  0  0  0  0  0  0  0
   -3.8510   -1.6320    0.0000 C   0  0  0  0  0  0  0  0  0  0  0  0
   -4.6900    0.3310    0.0000 C   0  0  0  0  0  0  0  0  0  0  0  0
   -4.0770    0.8830    0.0000 O   0  0  0  0  0  0  0  0  0  0  0  0
   -5.4750    0.5860    0.0000 O   0  0  0  0  0  0  0  0  0  0  0  0
   -4.0770    1.7080    0.0000 C   0  0  0  0  0  0  0  0  0  0  0  0
   -3.3620    2.1210    0.0000 C   0  0  0  0  0  0  0  0  0  0  0  0
   -5.8910   -1.0030    0.0000 C   0  0  0  0  0  0  0  0  0  0  0  0
   -3.2370   -2.1840    0.0000 F   0  0  0  0  0  0  0  0  0  0  0  0
  1  2  2  0  0  0  0
  1  6  1  0  0  0  0
  2  3  1  0  0  0  0
  2 25  1  0  0  0  0
  3  4  2  0  0  0  0
  4  5  1  0  0  0  0
  4  7  1  0  0  0  0
  5  6  2  0  0  0  0
  5 10  1  0  0  0  0
  7  8  1  0  0  0  0
  7 12  1  0  0  0  0
  7 13  1  6  0  0  0
  8  9  1  0  0  0  0
  8 15  1  1  0  0  0
  9 10  1  0  0  0  0
  9 11  1  1  0  0  0
 11 14  1  0  0  0  0
 11 16  1  0  0  0  0
 12 14  1  0  0  0  0
 16 17  1  6  0  0  0
 16 26  1  0  0  0  0
 17 18  1  0  0  0  0
 17 22  2  0  0  0  0
 18 19  2  0  0  0  0
 19 20  1  0  0  0  0
 20 21  2  0  0  0  0
 20 23  1  0  0  0  0
 21 22  1  0  0  0  0
 22 24  1  0  0  0  0
 25 28  1  0  0  0  0
 26 27  1  0  0  0  0
 28 29  1  0  0  0  0
 29 30  2  0  0  0  0
 29 33  1  0  0  0  0
 30 31  1  0  0  0  0
 30 34  1  0  0  0  0
 31 32  1  0  0  0  0
 31 39  1  0  0  0  0
 32 33  2  0  0  0  0
 33 40  1  0  0  0  0
 34 35  1  0  0  0  0
 34 36  2  0  0  0  0
 35 37  1  0  0  0  0
 37 38  1  0  0  0  0
M  END
$$$$
20220309-structures drawed for LXR-18292-203-better than 18292(68).sdf
  MOE2020           2D

 46 50  0  0  1  0  0  0  0  0999 V2000
   -1.8320   -2.2080    0.0000 C   0  0  0  0  0  0  0  0  0  0  0  0
   -1.8320   -3.0330    0.0000 C   0  0  0  0  0  0  0  0  0  0  0  0
   -1.1170   -3.4460    0.0000 C   0  0  0  0  0  0  0  0  0  0  0  0
   -0.4030   -3.0330    0.0000 C   0  0  0  0  0  0  0  0  0  0  0  0
   -0.4030   -2.2080    0.0000 C   0  0  0  0  0  0  0  0  0  0  0  0
   -1.1170   -1.7960    0.0000 C   0  0  0  0  0  0  0  0  0  0  0  0
    0.3120   -3.4460    0.0000 C   0  0  1  0  0  0  0  0  0  0  0  0
    1.0260   -3.0330    0.0000 C   0  0  1  0  0  0  0  0  0  0  0  0
    1.0260   -2.2080    0.0000 C   0  0  1  0  0  0  0  0  0  0  0  0
    0.3120   -1.7960    0.0000 C   0  0  0  0  0  0  0  0  0  0  0  0
    1.9300   -2.3790    0.0000 N   0  0  0  0  0  0  0  0  0  0  0  0
    1.3950   -4.0760    0.0000 C   0  0  0  0  0  0  0  0  0  0  0  0
   -0.1010   -4.1600    0.0000 C   0  0  0  0  0  0  0  0  0  0  0  0
    2.0890   -3.6690    0.0000 C   0  0  0  0  0  0  0  0  0  0  0  0
    1.7380   -3.4440    0.0000 C   0  0  0  0  0  0  0  0  0  0  0  0
    2.5290   -1.8170    0.0000 C   0  0  1  0  0  0  0  0  0  0  0  0
    3.3170   -2.0560    0.0000 C   0  0  0  0  0  0  0  0  0  0  0  0
    3.5040   -2.8590    0.0000 C   0  0  0  0  0  0  0  0  0  0  0  0
    4.2930   -3.0980    0.0000 C   0  0  0  0  0  0  0  0  0  0  0  0
    4.8960   -2.5340    0.0000 C   0  0  0  0  0  0  0  0  0  0  0  0
    4.7080   -1.7300    0.0000 C   0  0  0  0  0  0  0  0  0  0  0  0
    3.9180   -1.4910    0.0000 C   0  0  0  0  0  0  0  0  0  0  0  0
    5.6830   -2.7720    0.0000 F   0  0  0  0  0  0  0  0  0  0  0  0
    3.7310   -0.6880    0.0000 Cl  0  0  0  0  0  0  0  0  0  0  0  0
   -2.5440   -3.4440    0.0000 N   0  0  0  0  0  0  0  0  0  0  0  0
    2.3420   -1.0140    0.0000 C   0  0  0  0  0  0  0  0  0  0  0  0
    2.9440   -0.4500    0.0000 C   0  0  0  0  0  0  0  0  0  0  0  0
   -3.2580   -3.0320    0.0000 C   0  0  0  0  0  0  0  0  0  0  0  0
   -3.9730   -3.4450    0.0000 C   0  0  0  0  0  0  0  0  0  0  0  0
   -4.7270   -3.1090    0.0000 C   0  0  0  0  0  0  0  0  0  0  0  0
   -5.2780   -3.7230    0.0000 N   0  0  0  0  0  0  0  0  0  0  0  0
   -4.8660   -4.4370    0.0000 N   0  0  0  0  0  0  0  0  0  0  0  0
   -4.0590   -4.2650    0.0000 C   0  0  0  0  0  0  0  0  0  0  0  0
   -4.8980   -2.3030    0.0000 C   0  0  0  0  0  0  0  0  0  0  0  0
   -5.6830   -2.0480    0.0000 O   0  0  0  0  0  0  0  0  0  0  0  0
   -4.2850   -1.7500    0.0000 N   0  0  0  0  0  0  0  0  0  0  0  0
   -4.2850   -0.9250    0.0000 C   0  0  0  0  0  0  0  0  0  0  0  0
   -3.5700   -0.5130    0.0000 C   0  0  0  0  0  0  0  0  0  0  0  0
   -3.5700    0.3120    0.0000 O   0  0  0  0  0  0  0  0  0  0  0  0
   -2.8560    0.7250    0.0000 C   0  0  0  0  0  0  0  0  0  0  0  0
   -2.8560    1.5500    0.0000 C   0  0  0  0  0  0  0  0  0  0  0  0
   -2.1420    1.9620    0.0000 O   0  0  0  0  0  0  0  0  0  0  0  0
   -2.1420    2.7870    0.0000 C   0  0  0  0  0  0  0  0  0  0  0  0
   -1.4270    3.2000    0.0000 C   0  0  0  0  0  0  0  0  0  0  0  0
   -1.4270    4.0250    0.0000 O   0  0  0  0  0  0  0  0  0  0  0  0
   -0.7130    4.4370    0.0000 C   0  0  0  0  0  0  0  0  0  0  0  0
  1  2  2  0  0  0  0
  1  6  1  0  0  0  0
  2  3  1  0  0  0  0
  2 25  1  0  0  0  0
  3  4  2  0  0  0  0
  4  5  1  0  0  0  0
  4  7  1  0  0  0  0
  5  6  2  0  0  0  0
  5 10  1  0  0  0  0
  7  8  1  0  0  0  0
  7 12  1  0  0  0  0
  7 13  1  6  0  0  0
  8  9  1  0  0  0  0
  8 15  1  1  0  0  0
  9 10  1  0  0  0  0
  9 11  1  1  0  0  0
 11 14  1  0  0  0  0
 11 16  1  0  0  0  0
 12 14  1  0  0  0  0
 16 17  1  6  0  0  0
 16 26  1  0  0  0  0
 17 18  1  0  0  0  0
 17 22  2  0  0  0  0
 18 19  2  0  0  0  0
 19 20  1  0  0  0  0
 20 21  2  0  0  0  0
 20 23  1  0  0  0  0
 21 22  1  0  0  0  0
 22 24  1  0  0  0  0
 25 28  1  0  0  0  0
 26 27  1  0  0  0  0
 28 29  1  0  0  0  0
 29 30  1  0  0  0  0
 29 33  2  0  0  0  0
 30 31  2  0  0  0  0
 30 34  1  0  0  0  0
 31 32  1  0  0  0  0
 32 33  1  0  0  0  0
 34 35  2  0  0  0  0
 34 36  1  0  0  0  0
 36 37  1  0  0  0  0
 37 38  1  0  0  0  0
 38 39  1  0  0  0  0
 39 40  1  0  0  0  0
 40 41  1  0  0  0  0
 41 42  1  0  0  0  0
 42 43  1  0  0  0  0
 43 44  1  0  0  0  0
 44 45  1  0  0  0  0
 45 46  1  0  0  0  0
M  END
$$$$
20220309-structures drawed for LXR-18292-203-better than 18292(68).sdf
  MOE2020           2D

 46 50  0  0  1  0  0  0  0  0999 V2000
   -1.8320   -2.2080    0.0000 C   0  0  0  0  0  0  0  0  0  0  0  0
   -1.8320   -3.0330    0.0000 C   0  0  0  0  0  0  0  0  0  0  0  0
   -1.1170   -3.4460    0.0000 C   0  0  0  0  0  0  0  0  0  0  0  0
   -0.4030   -3.0330    0.0000 C   0  0  0  0  0  0  0  0  0  0  0  0
   -0.4030   -2.2080    0.0000 C   0  0  0  0  0  0  0  0  0  0  0  0
   -1.1170   -1.7960    0.0000 C   0  0  0  0  0  0  0  0  0  0  0  0
    0.3120   -3.4460    0.0000 C   0  0  1  0  0  0  0  0  0  0  0  0
    1.0260   -3.0330    0.0000 C   0  0  1  0  0  0  0  0  0  0  0  0
    1.0260   -2.2080    0.0000 C   0  0  1  0  0  0  0  0  0  0  0  0
    0.3120   -1.7960    0.0000 C   0  0  0  0  0  0  0  0  0  0  0  0
    1.9300   -2.3790    0.0000 N   0  0  0  0  0  0  0  0  0  0  0  0
    1.3950   -4.0760    0.0000 C   0  0  0  0  0  0  0  0  0  0  0  0
   -0.1010   -4.1600    0.0000 C   0  0  0  0  0  0  0  0  0  0  0  0
    2.0890   -3.6690    0.0000 C   0  0  0  0  0  0  0  0  0  0  0  0
    1.7380   -3.4440    0.0000 C   0  0  0  0  0  0  0  0  0  0  0  0
    2.5290   -1.8170    0.0000 C   0  0  1  0  0  0  0  0  0  0  0  0
    3.3170   -2.0560    0.0000 C   0  0  0  0  0  0  0  0  0  0  0  0
    3.5040   -2.8590    0.0000 C   0  0  0  0  0  0  0  0  0  0  0  0
    4.2930   -3.0980    0.0000 C   0  0  0  0  0  0  0  0  0  0  0  0
    4.8960   -2.5340    0.0000 C   0  0  0  0  0  0  0  0  0  0  0  0
    4.7080   -1.7300    0.0000 C   0  0  0  0  0  0  0  0  0  0  0  0
    3.9180   -1.4910    0.0000 C   0  0  0  0  0  0  0  0  0  0  0  0
    5.6830   -2.7720    0.0000 F   0  0  0  0  0  0  0  0  0  0  0  0
    3.7310   -0.6880    0.0000 Cl  0  0  0  0  0  0  0  0  0  0  0  0
   -2.5440   -3.4440    0.0000 N   0  0  0  0  0  0  0  0  0  0  0  0
    2.3420   -1.0140    0.0000 C   0  0  0  0  0  0  0  0  0  0  0  0
    2.9440   -0.4500    0.0000 C   0  0  0  0  0  0  0  0  0  0  0  0
   -3.2580   -3.0320    0.0000 C   0  0  0  0  0  0  0  0  0  0  0  0
   -3.9730   -3.4450    0.0000 C   0  0  0  0  0  0  0  0  0  0  0  0
   -4.7270   -3.1090    0.0000 C   0  0  0  0  0  0  0  0  0  0  0  0
   -5.2780   -3.7230    0.0000 N   0  0  0  0  0  0  0  0  0  0  0  0
   -4.8660   -4.4370    0.0000 N   0  0  0  0  0  0  0  0  0  0  0  0
   -4.0590   -4.2650    0.0000 C   0  0  0  0  0  0  0  0  0  0  0  0
   -4.8980   -2.3030    0.0000 C   0  0  0  0  0  0  0  0  0  0  0  0
   -5.6830   -2.0480    0.0000 O   0  0  0  0  0  0  0  0  0  0  0  0
   -4.2850   -1.7500    0.0000 O   0  0  0  0  0  0  0  0  0  0  0  0
   -4.2850   -0.9250    0.0000 C   0  0  0  0  0  0  0  0  0  0  0  0
   -3.5700   -0.5130    0.0000 C   0  0  0  0  0  0  0  0  0  0  0  0
   -3.5700    0.3120    0.0000 O   0  0  0  0  0  0  0  0  0  0  0  0
   -2.8560    0.7250    0.0000 C   0  0  0  0  0  0  0  0  0  0  0  0
   -2.8560    1.5500    0.0000 C   0  0  0  0  0  0  0  0  0  0  0  0
   -2.1420    1.9620    0.0000 O   0  0  0  0  0  0  0  0  0  0  0  0
   -2.1420    2.7870    0.0000 C   0  0  0  0  0  0  0  0  0  0  0  0
   -1.4270    3.2000    0.0000 C   0  0  0  0  0  0  0  0  0  0  0  0
   -1.4270    4.0250    0.0000 O   0  0  0  0  0  0  0  0  0  0  0  0
   -0.7130    4.4370    0.0000 C   0  0  0  0  0  0  0  0  0  0  0  0
  1  2  2  0  0  0  0
  1  6  1  0  0  0  0
  2  3  1  0  0  0  0
  2 25  1  0  0  0  0
  3  4  2  0  0  0  0
  4  5  1  0  0  0  0
  4  7  1  0  0  0  0
  5  6  2  0  0  0  0
  5 10  1  0  0  0  0
  7  8  1  0  0  0  0
  7 12  1  0  0  0  0
  7 13  1  6  0  0  0
  8  9  1  0  0  0  0
  8 15  1  1  0  0  0
  9 10  1  0  0  0  0
  9 11  1  1  0  0  0
 11 14  1  0  0  0  0
 11 16  1  0  0  0  0
 12 14  1  0  0  0  0
 16 17  1  6  0  0  0
 16 26  1  0  0  0  0
 17 18  1  0  0  0  0
 17 22  2  0  0  0  0
 18 19  2  0  0  0  0
 19 20  1  0  0  0  0
 20 21  2  0  0  0  0
 20 23  1  0  0  0  0
 21 22  1  0  0  0  0
 22 24  1  0  0  0  0
 25 28  1  0  0  0  0
 26 27  1  0  0  0  0
 28 29  1  0  0  0  0
 29 30  1  0  0  0  0
 29 33  2  0  0  0  0
 30 31  2  0  0  0  0
 30 34  1  0  0  0  0
 31 32  1  0  0  0  0
 32 33  1  0  0  0  0
 34 35  2  0  0  0  0
 34 36  1  0  0  0  0
 36 37  1  0  0  0  0
 37 38  1  0  0  0  0
 38 39  1  0  0  0  0
 39 40  1  0  0  0  0
 40 41  1  0  0  0  0
 41 42  1  0  0  0  0
 42 43  1  0  0  0  0
 43 44  1  0  0  0  0
 44 45  1  0  0  0  0
 45 46  1  0  0  0  0
M  END
$$$$
20220309-structures drawed for LXR-18292-203-better than 18292(68).sdf
  MOE2020           2D

 36 40  0  0  1  0  0  0  0  0999 V2000
   -1.8320    0.2360    0.0000 C   0  0  0  0  0  0  0  0  0  0  0  0
   -1.8320   -0.5900    0.0000 C   0  0  0  0  0  0  0  0  0  0  0  0
   -1.1170   -1.0020    0.0000 C   0  0  0  0  0  0  0  0  0  0  0  0
   -0.4030   -0.5900    0.0000 C   0  0  0  0  0  0  0  0  0  0  0  0
   -0.4030    0.2360    0.0000 C   0  0  0  0  0  0  0  0  0  0  0  0
   -1.1170    0.6480    0.0000 C   0  0  0  0  0  0  0  0  0  0  0  0
    0.3120   -1.0020    0.0000 C   0  0  1  0  0  0  0  0  0  0  0  0
    1.0260   -0.5900    0.0000 C   0  0  1  0  0  0  0  0  0  0  0  0
    1.0260    0.2360    0.0000 C   0  0  1  0  0  0  0  0  0  0  0  0
    0.3120    0.6480    0.0000 C   0  0  0  0  0  0  0  0  0  0  0  0
    1.9300    0.0640    0.0000 N   0  0  0  0  0  0  0  0  0  0  0  0
    1.3950   -1.6320    0.0000 C   0  0  0  0  0  0  0  0  0  0  0  0
   -0.1010   -1.7160    0.0000 C   0  0  0  0  0  0  0  0  0  0  0  0
    2.0890   -1.2260    0.0000 C   0  0  0  0  0  0  0  0  0  0  0  0
    1.7380   -1.0000    0.0000 C   0  0  0  0  0  0  0  0  0  0  0  0
    2.5290    0.6260    0.0000 C   0  0  1  0  0  0  0  0  0  0  0  0
    3.3170    0.3880    0.0000 C   0  0  0  0  0  0  0  0  0  0  0  0
    3.5040   -0.4150    0.0000 C   0  0  0  0  0  0  0  0  0  0  0  0
    4.2930   -0.6540    0.0000 C   0  0  0  0  0  0  0  0  0  0  0  0
    4.8960   -0.0900    0.0000 C   0  0  0  0  0  0  0  0  0  0  0  0
    4.7080    0.7130    0.0000 C   0  0  0  0  0  0  0  0  0  0  0  0
    3.9180    0.9520    0.0000 C   0  0  0  0  0  0  0  0  0  0  0  0
    5.6830   -0.3290    0.0000 F   0  0  0  0  0  0  0  0  0  0  0  0
    3.7310    1.7550    0.0000 Cl  0  0  0  0  0  0  0  0  0  0  0  0
   -2.5440   -1.0010    0.0000 N   0  0  0  0  0  0  0  0  0  0  0  0
    2.3420    1.4290    0.0000 C   0  0  0  0  0  0  0  0  0  0  0  0
    2.9440    1.9940    0.0000 C   0  0  0  0  0  0  0  0  0  0  0  0
   -3.2580   -0.5880    0.0000 C   0  0  0  0  0  0  0  0  0  0  0  0
   -3.9730   -1.0020    0.0000 C   0  0  0  0  0  0  0  0  0  0  0  0
   -4.7270   -0.6660    0.0000 C   0  0  0  0  0  0  0  0  0  0  0  0
   -5.2780   -1.2790    0.0000 N   0  0  0  0  0  0  0  0  0  0  0  0
   -4.8660   -1.9940    0.0000 N   0  0  0  0  0  0  0  0  0  0  0  0
   -4.0590   -1.8220    0.0000 C   0  0  0  0  0  0  0  0  0  0  0  0
   -4.8980    0.1410    0.0000 C   0  0  0  0  0  0  0  0  0  0  0  0
   -5.6830    0.3960    0.0000 O   0  0  0  0  0  0  0  0  0  0  0  0
   -4.2850    0.6930    0.0000 C   0  0  0  0  0  0  0  0  0  0  0  0
  1  2  2  0  0  0  0
  1  6  1  0  0  0  0
  2  3  1  0  0  0  0
  2 25  1  0  0  0  0
  3  4  2  0  0  0  0
  4  5  1  0  0  0  0
  4  7  1  0  0  0  0
  5  6  2  0  0  0  0
  5 10  1  0  0  0  0
  7  8  1  0  0  0  0
  7 12  1  0  0  0  0
  7 13  1  6  0  0  0
  8  9  1  0  0  0  0
  8 15  1  1  0  0  0
  9 10  1  0  0  0  0
  9 11  1  1  0  0  0
 11 14  1  0  0  0  0
 11 16  1  0  0  0  0
 12 14  1  0  0  0  0
 16 17  1  6  0  0  0
 16 26  1  0  0  0  0
 17 18  1  0  0  0  0
 17 22  2  0  0  0  0
 18 19  2  0  0  0  0
 19 20  1  0  0  0  0
 20 21  2  0  0  0  0
 20 23  1  0  0  0  0
 21 22  1  0  0  0  0
 22 24  1  0  0  0  0
 25 28  1  0  0  0  0
 26 27  1  0  0  0  0
 28 29  1  0  0  0  0
 29 30  1  0  0  0  0
 29 33  2  0  0  0  0
 30 31  2  0  0  0  0
 30 34  1  0  0  0  0
 31 32  1  0  0  0  0
 32 33  1  0  0  0  0
 34 35  2  0  0  0  0
 34 36  1  0  0  0  0
M  END
$$$$
20220309-structures drawed for LXR-18292-203-better than 18292(68).sdf
  MOE2020           2D

 39 43  0  0  1  0  0  0  0  0999 V2000
   -1.8320    0.2360    0.0000 C   0  0  0  0  0  0  0  0  0  0  0  0
   -1.8320   -0.5900    0.0000 C   0  0  0  0  0  0  0  0  0  0  0  0
   -1.1170   -1.0020    0.0000 C   0  0  0  0  0  0  0  0  0  0  0  0
   -0.4030   -0.5900    0.0000 C   0  0  0  0  0  0  0  0  0  0  0  0
   -0.4030    0.2360    0.0000 C   0  0  0  0  0  0  0  0  0  0  0  0
   -1.1170    0.6480    0.0000 C   0  0  0  0  0  0  0  0  0  0  0  0
    0.3120   -1.0020    0.0000 C   0  0  1  0  0  0  0  0  0  0  0  0
    1.0260   -0.5900    0.0000 C   0  0  1  0  0  0  0  0  0  0  0  0
    1.0260    0.2360    0.0000 C   0  0  1  0  0  0  0  0  0  0  0  0
    0.3120    0.6480    0.0000 C   0  0  0  0  0  0  0  0  0  0  0  0
    1.9300    0.0640    0.0000 N   0  0  0  0  0  0  0  0  0  0  0  0
    1.3950   -1.6320    0.0000 C   0  0  0  0  0  0  0  0  0  0  0  0
   -0.1010   -1.7160    0.0000 C   0  0  0  0  0  0  0  0  0  0  0  0
    2.0890   -1.2260    0.0000 C   0  0  0  0  0  0  0  0  0  0  0  0
    1.7380   -1.0000    0.0000 C   0  0  0  0  0  0  0  0  0  0  0  0
    2.5290    0.6260    0.0000 C   0  0  1  0  0  0  0  0  0  0  0  0
    3.3170    0.3880    0.0000 C   0  0  0  0  0  0  0  0  0  0  0  0
    3.5040   -0.4150    0.0000 C   0  0  0  0  0  0  0  0  0  0  0  0
    4.2930   -0.6540    0.0000 C   0  0  0  0  0  0  0  0  0  0  0  0
    4.8960   -0.0900    0.0000 C   0  0  0  0  0  0  0  0  0  0  0  0
    4.7080    0.7130    0.0000 C   0  0  0  0  0  0  0  0  0  0  0  0
    3.9180    0.9520    0.0000 C   0  0  0  0  0  0  0  0  0  0  0  0
    5.6830   -0.3290    0.0000 F   0  0  0  0  0  0  0  0  0  0  0  0
    3.7310    1.7550    0.0000 Cl  0  0  0  0  0  0  0  0  0  0  0  0
   -2.5440   -1.0010    0.0000 N   0  0  0  0  0  0  0  0  0  0  0  0
    2.3420    1.4290    0.0000 C   0  0  0  0  0  0  0  0  0  0  0  0
    2.9440    1.9940    0.0000 C   0  0  0  0  0  0  0  0  0  0  0  0
   -3.2580   -0.5880    0.0000 C   0  0  3  0  0  0  0  0  0  0  0  0
   -3.9730   -1.0020    0.0000 C   0  0  0  0  0  0  0  0  0  0  0  0
   -4.7270   -0.6660    0.0000 C   0  0  0  0  0  0  0  0  0  0  0  0
   -5.2780   -1.2790    0.0000 N   0  0  0  0  0  0  0  0  0  0  0  0
   -4.8660   -1.9940    0.0000 N   0  0  0  0  0  0  0  0  0  0  0  0
   -4.0590   -1.8220    0.0000 C   0  0  0  0  0  0  0  0  0  0  0  0
   -4.8980    0.1410    0.0000 C   0  0  0  0  0  0  0  0  0  0  0  0
   -5.6830    0.3960    0.0000 O   0  0  0  0  0  0  0  0  0  0  0  0
   -4.2850    0.6930    0.0000 O   0  0  0  0  0  0  0  0  0  0  0  0
   -4.2850    1.5180    0.0000 C   0  0  0  0  0  0  0  0  0  0  0  0
   -3.5700    1.9310    0.0000 C   0  0  0  0  0  0  0  0  0  0  0  0
   -3.2580    0.2370    0.0000 C   0  0  0  0  0  0  0  0  0  0  0  0
  1  2  2  0  0  0  0
  1  6  1  0  0  0  0
  2  3  1  0  0  0  0
  2 25  1  0  0  0  0
  3  4  2  0  0  0  0
  4  5  1  0  0  0  0
  4  7  1  0  0  0  0
  5  6  2  0  0  0  0
  5 10  1  0  0  0  0
  7  8  1  0  0  0  0
  7 12  1  0  0  0  0
  7 13  1  6  0  0  0
  8  9  1  0  0  0  0
  8 15  1  1  0  0  0
  9 10  1  0  0  0  0
  9 11  1  1  0  0  0
 11 14  1  0  0  0  0
 11 16  1  0  0  0  0
 12 14  1  0  0  0  0
 16 17  1  6  0  0  0
 16 26  1  0  0  0  0
 17 18  1  0  0  0  0
 17 22  2  0  0  0  0
 18 19  2  0  0  0  0
 19 20  1  0  0  0  0
 20 21  2  0  0  0  0
 20 23  1  0  0  0  0
 21 22  1  0  0  0  0
 22 24  1  0  0  0  0
 25 28  1  0  0  0  0
 26 27  1  0  0  0  0
 28 29  1  0  0  0  0
 28 39  1  0  0  0  0
 29 30  1  0  0  0  0
 29 33  2  0  0  0  0
 30 31  2  0  0  0  0
 30 34  1  0  0  0  0
 31 32  1  0  0  0  0
 32 33  1  0  0  0  0
 34 35  2  0  0  0  0
 34 36  1  0  0  0  0
 36 37  1  0  0  0  0
 37 38  1  0  0  0  0
M  END
$$$$
20220309-structures drawed for LXR-18292-203-better than 18292(68).sdf
  MOE2020           2D

 38 43  0  0  1  0  0  0  0  0999 V2000
   -1.8470    0.2360    0.0000 C   0  0  0  0  0  0  0  0  0  0  0  0
   -1.8470   -0.5900    0.0000 C   0  0  0  0  0  0  0  0  0  0  0  0
   -1.1330   -1.0020    0.0000 C   0  0  0  0  0  0  0  0  0  0  0  0
   -0.4180   -0.5900    0.0000 C   0  0  0  0  0  0  0  0  0  0  0  0
   -0.4180    0.2360    0.0000 C   0  0  0  0  0  0  0  0  0  0  0  0
   -1.1330    0.6480    0.0000 C   0  0  0  0  0  0  0  0  0  0  0  0
    0.2960   -1.0020    0.0000 C   0  0  1  0  0  0  0  0  0  0  0  0
    1.0100   -0.5900    0.0000 C   0  0  1  0  0  0  0  0  0  0  0  0
    1.0100    0.2360    0.0000 C   0  0  1  0  0  0  0  0  0  0  0  0
    0.2960    0.6480    0.0000 C   0  0  0  0  0  0  0  0  0  0  0  0
    1.9140    0.0640    0.0000 N   0  0  0  0  0  0  0  0  0  0  0  0
    1.3790   -1.6320    0.0000 C   0  0  0  0  0  0  0  0  0  0  0  0
   -0.1170   -1.7160    0.0000 C   0  0  0  0  0  0  0  0  0  0  0  0
    2.0740   -1.2260    0.0000 C   0  0  0  0  0  0  0  0  0  0  0  0
    1.7220   -1.0000    0.0000 C   0  0  0  0  0  0  0  0  0  0  0  0
    2.5140    0.6260    0.0000 C   0  0  1  0  0  0  0  0  0  0  0  0
    3.3010    0.3880    0.0000 C   0  0  0  0  0  0  0  0  0  0  0  0
    3.4880   -0.4150    0.0000 C   0  0  0  0  0  0  0  0  0  0  0  0
    4.2780   -0.6540    0.0000 C   0  0  0  0  0  0  0  0  0  0  0  0
    4.8800   -0.0900    0.0000 C   0  0  0  0  0  0  0  0  0  0  0  0
    4.6920    0.7130    0.0000 C   0  0  0  0  0  0  0  0  0  0  0  0
    3.9020    0.9520    0.0000 C   0  0  0  0  0  0  0  0  0  0  0  0
    5.6670   -0.3290    0.0000 F   0  0  0  0  0  0  0  0  0  0  0  0
    3.7150    1.7550    0.0000 Cl  0  0  0  0  0  0  0  0  0  0  0  0
   -2.5600   -1.0010    0.0000 N   0  0  0  0  0  0  0  0  0  0  0  0
    2.3260    1.4290    0.0000 C   0  0  0  0  0  0  0  0  0  0  0  0
    2.9280    1.9940    0.0000 C   0  0  0  0  0  0  0  0  0  0  0  0
   -3.2740   -0.5890    0.0000 C   0  0  0  0  0  0  0  0  0  0  0  0
   -3.9880   -1.0020    0.0000 C   0  0  0  0  0  0  0  0  0  0  0  0
   -4.7420   -0.6660    0.0000 C   0  0  0  0  0  0  0  0  0  0  0  0
   -5.2940   -1.2790    0.0000 N   0  0  0  0  0  0  0  0  0  0  0  0
   -4.8820   -1.9940    0.0000 N   0  0  0  0  0  0  0  0  0  0  0  0
   -4.0740   -1.8220    0.0000 C   0  0  0  0  0  0  0  0  0  0  0  0
   -4.9140    0.1410    0.0000 C   0  0  0  0  0  0  0  0  0  0  0  0
   -4.3610    0.7530    0.0000 C   0  0  0  0  0  0  0  0  0  0  0  0
   -4.7740    1.4680    0.0000 N   0  0  0  0  0  0  0  0  0  0  0  0
   -5.5800    1.2970    0.0000 C   0  0  0  0  0  0  0  0  0  0  0  0
   -5.6670    0.4770    0.0000 O   0  0  0  0  0  0  0  0  0  0  0  0
  1  2  2  0  0  0  0
  1  6  1  0  0  0  0
  2  3  1  0  0  0  0
  2 25  1  0  0  0  0
  3  4  2  0  0  0  0
  4  5  1  0  0  0  0
  4  7  1  0  0  0  0
  5  6  2  0  0  0  0
  5 10  1  0  0  0  0
  7  8  1  0  0  0  0
  7 12  1  0  0  0  0
  7 13  1  6  0  0  0
  8  9  1  0  0  0  0
  8 15  1  1  0  0  0
  9 10  1  0  0  0  0
  9 11  1  1  0  0  0
 11 14  1  0  0  0  0
 11 16  1  0  0  0  0
 12 14  1  0  0  0  0
 16 17  1  6  0  0  0
 16 26  1  0  0  0  0
 17 18  1  0  0  0  0
 17 22  2  0  0  0  0
 18 19  2  0  0  0  0
 19 20  1  0  0  0  0
 20 21  2  0  0  0  0
 20 23  1  0  0  0  0
 21 22  1  0  0  0  0
 22 24  1  0  0  0  0
 25 28  1  0  0  0  0
 26 27  1  0  0  0  0
 28 29  1  0  0  0  0
 29 30  1  0  0  0  0
 29 33  2  0  0  0  0
 30 31  2  0  0  0  0
 30 34  1  0  0  0  0
 31 32  1  0  0  0  0
 32 33  1  0  0  0  0
 34 35  2  0  0  0  0
 34 38  1  0  0  0  0
 35 36  1  0  0  0  0
 36 37  2  0  0  0  0
 37 38  1  0  0  0  0
M  END
$$$$
20220309-structures drawed for LXR-18292-203-better than 18292(68).sdf
  MOE2020           2D

 39 44  0  0  1  0  0  0  0  0999 V2000
   -1.8470    0.2360    0.0000 C   0  0  0  0  0  0  0  0  0  0  0  0
   -1.8470   -0.5900    0.0000 C   0  0  0  0  0  0  0  0  0  0  0  0
   -1.1330   -1.0020    0.0000 C   0  0  0  0  0  0  0  0  0  0  0  0
   -0.4180   -0.5900    0.0000 C   0  0  0  0  0  0  0  0  0  0  0  0
   -0.4180    0.2360    0.0000 C   0  0  0  0  0  0  0  0  0  0  0  0
   -1.1330    0.6480    0.0000 C   0  0  0  0  0  0  0  0  0  0  0  0
    0.2960   -1.0020    0.0000 C   0  0  1  0  0  0  0  0  0  0  0  0
    1.0100   -0.5900    0.0000 C   0  0  1  0  0  0  0  0  0  0  0  0
    1.0100    0.2360    0.0000 C   0  0  1  0  0  0  0  0  0  0  0  0
    0.2960    0.6480    0.0000 C   0  0  0  0  0  0  0  0  0  0  0  0
    1.9140    0.0640    0.0000 N   0  0  0  0  0  0  0  0  0  0  0  0
    1.3790   -1.6320    0.0000 C   0  0  0  0  0  0  0  0  0  0  0  0
   -0.1170   -1.7160    0.0000 C   0  0  0  0  0  0  0  0  0  0  0  0
    2.0740   -1.2260    0.0000 C   0  0  0  0  0  0  0  0  0  0  0  0
    1.7220   -1.0000    0.0000 C   0  0  0  0  0  0  0  0  0  0  0  0
    2.5140    0.6260    0.0000 C   0  0  1  0  0  0  0  0  0  0  0  0
    3.3010    0.3880    0.0000 C   0  0  0  0  0  0  0  0  0  0  0  0
    3.4880   -0.4150    0.0000 C   0  0  0  0  0  0  0  0  0  0  0  0
    4.2780   -0.6540    0.0000 C   0  0  0  0  0  0  0  0  0  0  0  0
    4.8800   -0.0900    0.0000 C   0  0  0  0  0  0  0  0  0  0  0  0
    4.6920    0.7130    0.0000 C   0  0  0  0  0  0  0  0  0  0  0  0
    3.9020    0.9520    0.0000 C   0  0  0  0  0  0  0  0  0  0  0  0
    5.6670   -0.3290    0.0000 F   0  0  0  0  0  0  0  0  0  0  0  0
    3.7150    1.7550    0.0000 Cl  0  0  0  0  0  0  0  0  0  0  0  0
   -2.5600   -1.0010    0.0000 N   0  0  0  0  0  0  0  0  0  0  0  0
    2.3260    1.4290    0.0000 C   0  0  0  0  0  0  0  0  0  0  0  0
    2.9280    1.9940    0.0000 C   0  0  0  0  0  0  0  0  0  0  0  0
   -3.2740   -0.5890    0.0000 C   0  0  0  0  0  0  0  0  0  0  0  0
   -3.9880   -1.0020    0.0000 C   0  0  0  0  0  0  0  0  0  0  0  0
   -4.7420   -0.6660    0.0000 C   0  0  0  0  0  0  0  0  0  0  0  0
   -5.2940   -1.2790    0.0000 N   0  0  0  0  0  0  0  0  0  0  0  0
   -4.8820   -1.9940    0.0000 N   0  0  0  0  0  0  0  0  0  0  0  0
   -4.0740   -1.8220    0.0000 C   0  0  0  0  0  0  0  0  0  0  0  0
   -4.9140    0.1410    0.0000 N   0  0  0  0  0  0  0  0  0  0  0  0
   -4.3610    0.7530    0.0000 C   0  0  0  0  0  0  0  0  0  0  0  0
   -4.7740    1.4680    0.0000 N   0  0  0  0  0  0  0  0  0  0  0  0
   -5.5800    1.2970    0.0000 C   0  0  0  0  0  0  0  0  0  0  0  0
   -5.6670    0.4770    0.0000 C   0  0  0  0  0  0  0  0  0  0  0  0
   -3.5410    0.6670    0.0000 O   0  0  0  0  0  0  0  0  0  0  0  0
  1  2  2  0  0  0  0
  1  6  1  0  0  0  0
  2  3  1  0  0  0  0
  2 25  1  0  0  0  0
  3  4  2  0  0  0  0
  4  5  1  0  0  0  0
  4  7  1  0  0  0  0
  5  6  2  0  0  0  0
  5 10  1  0  0  0  0
  7  8  1  0  0  0  0
  7 12  1  0  0  0  0
  7 13  1  6  0  0  0
  8  9  1  0  0  0  0
  8 15  1  1  0  0  0
  9 10  1  0  0  0  0
  9 11  1  1  0  0  0
 11 14  1  0  0  0  0
 11 16  1  0  0  0  0
 12 14  1  0  0  0  0
 16 17  1  6  0  0  0
 16 26  1  0  0  0  0
 17 18  1  0  0  0  0
 17 22  2  0  0  0  0
 18 19  2  0  0  0  0
 19 20  1  0  0  0  0
 20 21  2  0  0  0  0
 20 23  1  0  0  0  0
 21 22  1  0  0  0  0
 22 24  1  0  0  0  0
 25 28  1  0  0  0  0
 26 27  1  0  0  0  0
 28 29  1  0  0  0  0
 29 30  1  0  0  0  0
 29 33  2  0  0  0  0
 30 31  2  0  0  0  0
 30 34  1  0  0  0  0
 31 32  1  0  0  0  0
 32 33  1  0  0  0  0
 34 35  1  0  0  0  0
 34 38  1  0  0  0  0
 35 36  1  0  0  0  0
 35 39  2  0  0  0  0
 36 37  1  0  0  0  0
 37 38  1  0  0  0  0
M  END
$$$$
20220309-structures drawed for LXR-18292-203-better than 18292(68).sdf
  MOE2020           2D

 38 43  0  0  1  0  0  0  0  0999 V2000
   -1.8470    0.2360    0.0000 C   0  0  0  0  0  0  0  0  0  0  0  0
   -1.8470   -0.5900    0.0000 C   0  0  0  0  0  0  0  0  0  0  0  0
   -1.1330   -1.0020    0.0000 C   0  0  0  0  0  0  0  0  0  0  0  0
   -0.4180   -0.5900    0.0000 C   0  0  0  0  0  0  0  0  0  0  0  0
   -0.4180    0.2360    0.0000 C   0  0  0  0  0  0  0  0  0  0  0  0
   -1.1330    0.6480    0.0000 C   0  0  0  0  0  0  0  0  0  0  0  0
    0.2960   -1.0020    0.0000 C   0  0  1  0  0  0  0  0  0  0  0  0
    1.0100   -0.5900    0.0000 C   0  0  1  0  0  0  0  0  0  0  0  0
    1.0100    0.2360    0.0000 C   0  0  1  0  0  0  0  0  0  0  0  0
    0.2960    0.6480    0.0000 C   0  0  0  0  0  0  0  0  0  0  0  0
    1.9140    0.0640    0.0000 N   0  0  0  0  0  0  0  0  0  0  0  0
    1.3790   -1.6320    0.0000 C   0  0  0  0  0  0  0  0  0  0  0  0
   -0.1170   -1.7160    0.0000 C   0  0  0  0  0  0  0  0  0  0  0  0
    2.0740   -1.2260    0.0000 C   0  0  0  0  0  0  0  0  0  0  0  0
    1.7220   -1.0000    0.0000 C   0  0  0  0  0  0  0  0  0  0  0  0
    2.5140    0.6260    0.0000 C   0  0  1  0  0  0  0  0  0  0  0  0
    3.3010    0.3880    0.0000 C   0  0  0  0  0  0  0  0  0  0  0  0
    3.4880   -0.4150    0.0000 C   0  0  0  0  0  0  0  0  0  0  0  0
    4.2780   -0.6540    0.0000 C   0  0  0  0  0  0  0  0  0  0  0  0
    4.8800   -0.0900    0.0000 C   0  0  0  0  0  0  0  0  0  0  0  0
    4.6920    0.7130    0.0000 C   0  0  0  0  0  0  0  0  0  0  0  0
    3.9020    0.9520    0.0000 C   0  0  0  0  0  0  0  0  0  0  0  0
    5.6670   -0.3290    0.0000 F   0  0  0  0  0  0  0  0  0  0  0  0
    3.7150    1.7550    0.0000 Cl  0  0  0  0  0  0  0  0  0  0  0  0
   -2.5600   -1.0010    0.0000 N   0  0  0  0  0  0  0  0  0  0  0  0
    2.3260    1.4290    0.0000 C   0  0  0  0  0  0  0  0  0  0  0  0
    2.9280    1.9940    0.0000 C   0  0  0  0  0  0  0  0  0  0  0  0
   -3.2740   -0.5890    0.0000 C   0  0  0  0  0  0  0  0  0  0  0  0
   -3.9880   -1.0020    0.0000 C   0  0  0  0  0  0  0  0  0  0  0  0
   -4.7420   -0.6660    0.0000 C   0  0  0  0  0  0  0  0  0  0  0  0
   -5.2940   -1.2790    0.0000 N   0  0  0  0  0  0  0  0  0  0  0  0
   -4.8820   -1.9940    0.0000 N   0  0  0  0  0  0  0  0  0  0  0  0
   -4.0740   -1.8220    0.0000 C   0  0  0  0  0  0  0  0  0  0  0  0
   -4.9140    0.1410    0.0000 C   0  0  0  0  0  0  0  0  0  0  0  0
   -4.3610    0.7530    0.0000 C   0  0  0  0  0  0  0  0  0  0  0  0
   -4.7740    1.4680    0.0000 C   0  0  0  0  0  0  0  0  0  0  0  0
   -5.5800    1.2970    0.0000 N   0  0  0  0  0  0  0  0  0  0  0  0
   -5.6670    0.4770    0.0000 O   0  0  0  0  0  0  0  0  0  0  0  0
  1  2  2  0  0  0  0
  1  6  1  0  0  0  0
  2  3  1  0  0  0  0
  2 25  1  0  0  0  0
  3  4  2  0  0  0  0
  4  5  1  0  0  0  0
  4  7  1  0  0  0  0
  5  6  2  0  0  0  0
  5 10  1  0  0  0  0
  7  8  1  0  0  0  0
  7 12  1  0  0  0  0
  7 13  1  6  0  0  0
  8  9  1  0  0  0  0
  8 15  1  1  0  0  0
  9 10  1  0  0  0  0
  9 11  1  1  0  0  0
 11 14  1  0  0  0  0
 11 16  1  0  0  0  0
 12 14  1  0  0  0  0
 16 17  1  6  0  0  0
 16 26  1  0  0  0  0
 17 18  1  0  0  0  0
 17 22  2  0  0  0  0
 18 19  2  0  0  0  0
 19 20  1  0  0  0  0
 20 21  2  0  0  0  0
 20 23  1  0  0  0  0
 21 22  1  0  0  0  0
 22 24  1  0  0  0  0
 25 28  1  0  0  0  0
 26 27  1  0  0  0  0
 28 29  1  0  0  0  0
 29 30  1  0  0  0  0
 29 33  2  0  0  0  0
 30 31  2  0  0  0  0
 30 34  1  0  0  0  0
 31 32  1  0  0  0  0
 32 33  1  0  0  0  0
 34 35  2  0  0  0  0
 34 38  1  0  0  0  0
 35 36  1  0  0  0  0
 36 37  2  0  0  0  0
 37 38  1  0  0  0  0
M  END
$$$$
20220309-structures drawed for LXR-18292-203-better than 18292(68).sdf
  MOE2020           2D

 38 43  0  0  1  0  0  0  0  0999 V2000
   -1.8470    0.2360    0.0000 C   0  0  0  0  0  0  0  0  0  0  0  0
   -1.8470   -0.5900    0.0000 C   0  0  0  0  0  0  0  0  0  0  0  0
   -1.1330   -1.0020    0.0000 C   0  0  0  0  0  0  0  0  0  0  0  0
   -0.4180   -0.5900    0.0000 C   0  0  0  0  0  0  0  0  0  0  0  0
   -0.4180    0.2360    0.0000 C   0  0  0  0  0  0  0  0  0  0  0  0
   -1.1330    0.6480    0.0000 C   0  0  0  0  0  0  0  0  0  0  0  0
    0.2960   -1.0020    0.0000 C   0  0  1  0  0  0  0  0  0  0  0  0
    1.0100   -0.5900    0.0000 C   0  0  1  0  0  0  0  0  0  0  0  0
    1.0100    0.2360    0.0000 C   0  0  1  0  0  0  0  0  0  0  0  0
    0.2960    0.6480    0.0000 C   0  0  0  0  0  0  0  0  0  0  0  0
    1.9140    0.0640    0.0000 N   0  0  0  0  0  0  0  0  0  0  0  0
    1.3790   -1.6320    0.0000 C   0  0  0  0  0  0  0  0  0  0  0  0
   -0.1170   -1.7160    0.0000 C   0  0  0  0  0  0  0  0  0  0  0  0
    2.0740   -1.2260    0.0000 C   0  0  0  0  0  0  0  0  0  0  0  0
    1.7220   -1.0000    0.0000 C   0  0  0  0  0  0  0  0  0  0  0  0
    2.5140    0.6260    0.0000 C   0  0  1  0  0  0  0  0  0  0  0  0
    3.3010    0.3880    0.0000 C   0  0  0  0  0  0  0  0  0  0  0  0
    3.4880   -0.4150    0.0000 C   0  0  0  0  0  0  0  0  0  0  0  0
    4.2780   -0.6540    0.0000 C   0  0  0  0  0  0  0  0  0  0  0  0
    4.8800   -0.0900    0.0000 C   0  0  0  0  0  0  0  0  0  0  0  0
    4.6920    0.7130    0.0000 C   0  0  0  0  0  0  0  0  0  0  0  0
    3.9020    0.9520    0.0000 C   0  0  0  0  0  0  0  0  0  0  0  0
    5.6670   -0.3290    0.0000 F   0  0  0  0  0  0  0  0  0  0  0  0
    3.7150    1.7550    0.0000 Cl  0  0  0  0  0  0  0  0  0  0  0  0
   -2.5600   -1.0010    0.0000 N   0  0  0  0  0  0  0  0  0  0  0  0
    2.3260    1.4290    0.0000 C   0  0  0  0  0  0  0  0  0  0  0  0
    2.9280    1.9940    0.0000 C   0  0  0  0  0  0  0  0  0  0  0  0
   -3.2740   -0.5890    0.0000 C   0  0  0  0  0  0  0  0  0  0  0  0
   -3.9880   -1.0020    0.0000 C   0  0  0  0  0  0  0  0  0  0  0  0
   -4.7420   -0.6660    0.0000 C   0  0  0  0  0  0  0  0  0  0  0  0
   -5.2940   -1.2790    0.0000 N   0  0  0  0  0  0  0  0  0  0  0  0
   -4.8820   -1.9940    0.0000 N   0  0  0  0  0  0  0  0  0  0  0  0
   -4.0740   -1.8220    0.0000 C   0  0  0  0  0  0  0  0  0  0  0  0
   -4.9140    0.1410    0.0000 C   0  0  0  0  0  0  0  0  0  0  0  0
   -4.3610    0.7530    0.0000 C   0  0  0  0  0  0  0  0  0  0  0  0
   -4.7740    1.4680    0.0000 C   0  0  0  0  0  0  0  0  0  0  0  0
   -5.5800    1.2970    0.0000 N   0  0  0  0  0  0  0  0  0  0  0  0
   -5.6670    0.4770    0.0000 S   0  0  0  0  0  0  0  0  0  0  0  0
  1  2  2  0  0  0  0
  1  6  1  0  0  0  0
  2  3  1  0  0  0  0
  2 25  1  0  0  0  0
  3  4  2  0  0  0  0
  4  5  1  0  0  0  0
  4  7  1  0  0  0  0
  5  6  2  0  0  0  0
  5 10  1  0  0  0  0
  7  8  1  0  0  0  0
  7 12  1  0  0  0  0
  7 13  1  6  0  0  0
  8  9  1  0  0  0  0
  8 15  1  1  0  0  0
  9 10  1  0  0  0  0
  9 11  1  1  0  0  0
 11 14  1  0  0  0  0
 11 16  1  0  0  0  0
 12 14  1  0  0  0  0
 16 17  1  6  0  0  0
 16 26  1  0  0  0  0
 17 18  1  0  0  0  0
 17 22  2  0  0  0  0
 18 19  2  0  0  0  0
 19 20  1  0  0  0  0
 20 21  2  0  0  0  0
 20 23  1  0  0  0  0
 21 22  1  0  0  0  0
 22 24  1  0  0  0  0
 25 28  1  0  0  0  0
 26 27  1  0  0  0  0
 28 29  1  0  0  0  0
 29 30  1  0  0  0  0
 29 33  2  0  0  0  0
 30 31  2  0  0  0  0
 30 34  1  0  0  0  0
 31 32  1  0  0  0  0
 32 33  1  0  0  0  0
 34 35  2  0  0  0  0
 34 38  1  0  0  0  0
 35 36  1  0  0  0  0
 36 37  2  0  0  0  0
 37 38  1  0  0  0  0
M  END
$$$$
20220309-structures drawed for LXR-18292-203-better than 18292(68).sdf
  MOE2020           2D

 38 43  0  0  1  0  0  0  0  0999 V2000
   -1.8470    0.2360    0.0000 C   0  0  0  0  0  0  0  0  0  0  0  0
   -1.8470   -0.5900    0.0000 C   0  0  0  0  0  0  0  0  0  0  0  0
   -1.1330   -1.0020    0.0000 C   0  0  0  0  0  0  0  0  0  0  0  0
   -0.4180   -0.5900    0.0000 C   0  0  0  0  0  0  0  0  0  0  0  0
   -0.4180    0.2360    0.0000 C   0  0  0  0  0  0  0  0  0  0  0  0
   -1.1330    0.6480    0.0000 C   0  0  0  0  0  0  0  0  0  0  0  0
    0.2960   -1.0020    0.0000 C   0  0  1  0  0  0  0  0  0  0  0  0
    1.0100   -0.5900    0.0000 C   0  0  1  0  0  0  0  0  0  0  0  0
    1.0100    0.2360    0.0000 C   0  0  1  0  0  0  0  0  0  0  0  0
    0.2960    0.6480    0.0000 C   0  0  0  0  0  0  0  0  0  0  0  0
    1.9140    0.0640    0.0000 N   0  0  0  0  0  0  0  0  0  0  0  0
    1.3790   -1.6320    0.0000 C   0  0  0  0  0  0  0  0  0  0  0  0
   -0.1170   -1.7160    0.0000 C   0  0  0  0  0  0  0  0  0  0  0  0
    2.0740   -1.2260    0.0000 C   0  0  0  0  0  0  0  0  0  0  0  0
    1.7220   -1.0000    0.0000 C   0  0  0  0  0  0  0  0  0  0  0  0
    2.5140    0.6260    0.0000 C   0  0  1  0  0  0  0  0  0  0  0  0
    3.3010    0.3880    0.0000 C   0  0  0  0  0  0  0  0  0  0  0  0
    3.4880   -0.4150    0.0000 C   0  0  0  0  0  0  0  0  0  0  0  0
    4.2780   -0.6540    0.0000 C   0  0  0  0  0  0  0  0  0  0  0  0
    4.8800   -0.0900    0.0000 C   0  0  0  0  0  0  0  0  0  0  0  0
    4.6920    0.7130    0.0000 C   0  0  0  0  0  0  0  0  0  0  0  0
    3.9020    0.9520    0.0000 C   0  0  0  0  0  0  0  0  0  0  0  0
    5.6670   -0.3290    0.0000 F   0  0  0  0  0  0  0  0  0  0  0  0
    3.7150    1.7550    0.0000 Cl  0  0  0  0  0  0  0  0  0  0  0  0
   -2.5600   -1.0010    0.0000 N   0  0  0  0  0  0  0  0  0  0  0  0
    2.3260    1.4290    0.0000 C   0  0  0  0  0  0  0  0  0  0  0  0
    2.9280    1.9940    0.0000 C   0  0  0  0  0  0  0  0  0  0  0  0
   -3.2740   -0.5890    0.0000 C   0  0  0  0  0  0  0  0  0  0  0  0
   -3.9880   -1.0020    0.0000 C   0  0  0  0  0  0  0  0  0  0  0  0
   -4.7420   -0.6660    0.0000 C   0  0  0  0  0  0  0  0  0  0  0  0
   -5.2940   -1.2790    0.0000 N   0  0  0  0  0  0  0  0  0  0  0  0
   -4.8820   -1.9940    0.0000 N   0  0  0  0  0  0  0  0  0  0  0  0
   -4.0740   -1.8220    0.0000 C   0  0  0  0  0  0  0  0  0  0  0  0
   -4.9140    0.1410    0.0000 C   0  0  0  0  0  0  0  0  0  0  0  0
   -4.3610    0.7530    0.0000 C   0  0  0  0  0  0  0  0  0  0  0  0
   -4.7740    1.4680    0.0000 O   0  0  0  0  0  0  0  0  0  0  0  0
   -5.5800    1.2970    0.0000 N   0  0  0  0  0  0  0  0  0  0  0  0
   -5.6670    0.4770    0.0000 C   0  0  0  0  0  0  0  0  0  0  0  0
  1  2  2  0  0  0  0
  1  6  1  0  0  0  0
  2  3  1  0  0  0  0
  2 25  1  0  0  0  0
  3  4  2  0  0  0  0
  4  5  1  0  0  0  0
  4  7  1  0  0  0  0
  5  6  2  0  0  0  0
  5 10  1  0  0  0  0
  7  8  1  0  0  0  0
  7 12  1  0  0  0  0
  7 13  1  6  0  0  0
  8  9  1  0  0  0  0
  8 15  1  1  0  0  0
  9 10  1  0  0  0  0
  9 11  1  1  0  0  0
 11 14  1  0  0  0  0
 11 16  1  0  0  0  0
 12 14  1  0  0  0  0
 16 17  1  6  0  0  0
 16 26  1  0  0  0  0
 17 18  1  0  0  0  0
 17 22  2  0  0  0  0
 18 19  2  0  0  0  0
 19 20  1  0  0  0  0
 20 21  2  0  0  0  0
 20 23  1  0  0  0  0
 21 22  1  0  0  0  0
 22 24  1  0  0  0  0
 25 28  1  0  0  0  0
 26 27  1  0  0  0  0
 28 29  1  0  0  0  0
 29 30  1  0  0  0  0
 29 33  2  0  0  0  0
 30 31  2  0  0  0  0
 30 34  1  0  0  0  0
 31 32  1  0  0  0  0
 32 33  1  0  0  0  0
 34 35  2  0  0  0  0
 34 38  1  0  0  0  0
 35 36  1  0  0  0  0
 36 37  1  0  0  0  0
 37 38  2  0  0  0  0
M  END
$$$$
20220309-structures drawed for LXR-18292-203-better than 18292(68).sdf
  MOE2020           2D

 38 42  0  0  1  0  0  0  0  0999 V2000
   -1.2030    0.1840    0.0000 C   0  0  0  0  0  0  0  0  0  0  0  0
   -1.2030   -0.6410    0.0000 C   0  0  0  0  0  0  0  0  0  0  0  0
   -0.4880   -1.0530    0.0000 C   0  0  0  0  0  0  0  0  0  0  0  0
    0.2260   -0.6410    0.0000 C   0  0  0  0  0  0  0  0  0  0  0  0
    0.2260    0.1840    0.0000 C   0  0  0  0  0  0  0  0  0  0  0  0
   -0.4880    0.5970    0.0000 C   0  0  0  0  0  0  0  0  0  0  0  0
    0.9410   -1.0530    0.0000 C   0  0  1  0  0  0  0  0  0  0  0  0
    1.6550   -0.6410    0.0000 C   0  0  1  0  0  0  0  0  0  0  0  0
    1.6550    0.1840    0.0000 C   0  0  1  0  0  0  0  0  0  0  0  0
    0.9410    0.5970    0.0000 C   0  0  0  0  0  0  0  0  0  0  0  0
    2.5590    0.0130    0.0000 N   0  0  0  0  0  0  0  0  0  0  0  0
    2.0240   -1.6840    0.0000 C   0  0  0  0  0  0  0  0  0  0  0  0
    0.5280   -1.7680    0.0000 C   0  0  0  0  0  0  0  0  0  0  0  0
    2.7180   -1.2770    0.0000 C   0  0  0  0  0  0  0  0  0  0  0  0
    2.3670   -1.0520    0.0000 C   0  0  0  0  0  0  0  0  0  0  0  0
    3.1580    0.5750    0.0000 C   0  0  1  0  0  0  0  0  0  0  0  0
    3.9460    0.3370    0.0000 C   0  0  0  0  0  0  0  0  0  0  0  0
    4.1330   -0.4670    0.0000 C   0  0  0  0  0  0  0  0  0  0  0  0
    4.9220   -0.7060    0.0000 C   0  0  0  0  0  0  0  0  0  0  0  0
    5.5250   -0.1420    0.0000 C   0  0  0  0  0  0  0  0  0  0  0  0
    5.3370    0.6620    0.0000 C   0  0  0  0  0  0  0  0  0  0  0  0
    4.5470    0.9010    0.0000 C   0  0  0  0  0  0  0  0  0  0  0  0
    6.3120   -0.3800    0.0000 F   0  0  0  0  0  0  0  0  0  0  0  0
    4.3600    1.7040    0.0000 Cl  0  0  0  0  0  0  0  0  0  0  0  0
   -1.9150   -1.0520    0.0000 N   0  0  0  0  0  0  0  0  0  0  0  0
    2.9710    1.3780    0.0000 C   0  0  0  0  0  0  0  0  0  0  0  0
    3.5730    1.9420    0.0000 C   0  0  0  0  0  0  0  0  0  0  0  0
   -2.6270   -0.6410    0.0000 C   0  0  0  0  0  0  0  0  0  0  0  0
   -3.3380   -1.0520    0.0000 C   0  0  0  0  0  0  0  0  0  0  0  0
   -4.0510   -0.6410    0.0000 C   0  0  0  0  0  0  0  0  0  0  0  0
   -4.6610   -1.1910    0.0000 C   0  0  0  0  0  0  0  0  0  0  0  0
   -4.3270   -1.9420    0.0000 N   0  0  0  0  0  0  0  0  0  0  0  0
   -3.5100   -1.8560    0.0000 N   0  0  0  0  0  0  0  0  0  0  0  0
   -4.1370    0.1800    0.0000 C   0  0  0  0  0  0  0  0  0  0  0  0
   -3.4700    0.6640    0.0000 O   0  0  0  0  0  0  0  0  0  0  0  0
   -4.8900    0.5150    0.0000 O   0  0  0  0  0  0  0  0  0  0  0  0
   -5.5580    0.0300    0.0000 C   0  0  0  0  0  0  0  0  0  0  0  0
   -6.3120    0.3660    0.0000 C   0  0  0  0  0  0  0  0  0  0  0  0
  1  2  2  0  0  0  0
  1  6  1  0  0  0  0
  2  3  1  0  0  0  0
  2 25  1  0  0  0  0
  3  4  2  0  0  0  0
  4  5  1  0  0  0  0
  4  7  1  0  0  0  0
  5  6  2  0  0  0  0
  5 10  1  0  0  0  0
  7  8  1  0  0  0  0
  7 12  1  0  0  0  0
  7 13  1  6  0  0  0
  8  9  1  0  0  0  0
  8 15  1  1  0  0  0
  9 10  1  0  0  0  0
  9 11  1  1  0  0  0
 11 14  1  0  0  0  0
 11 16  1  0  0  0  0
 12 14  1  0  0  0  0
 16 17  1  6  0  0  0
 16 26  1  0  0  0  0
 17 18  1  0  0  0  0
 17 22  2  0  0  0  0
 18 19  2  0  0  0  0
 19 20  1  0  0  0  0
 20 21  2  0  0  0  0
 20 23  1  0  0  0  0
 21 22  1  0  0  0  0
 22 24  1  0  0  0  0
 25 28  1  0  0  0  0
 26 27  1  0  0  0  0
 28 29  1  0  0  0  0
 29 30  1  0  0  0  0
 29 33  2  0  0  0  0
 30 31  2  0  0  0  0
 30 34  1  0  0  0  0
 31 32  1  0  0  0  0
 32 33  1  0  0  0  0
 34 35  2  0  0  0  0
 34 36  1  0  0  0  0
 36 37  1  0  0  0  0
 37 38  1  0  0  0  0
M  END
$$$$
20220309-structures drawed for LXR-18292-203-better than 18292(68).sdf
  MOE2020           2D

 38 42  0  0  1  0  0  0  0  0999 V2000
   -1.3140    0.8750    0.0000 C   0  0  0  0  0  0  0  0  0  0  0  0
   -1.3140    0.0500    0.0000 C   0  0  0  0  0  0  0  0  0  0  0  0
   -0.5990   -0.3620    0.0000 C   0  0  0  0  0  0  0  0  0  0  0  0
    0.1150    0.0500    0.0000 C   0  0  0  0  0  0  0  0  0  0  0  0
    0.1150    0.8750    0.0000 C   0  0  0  0  0  0  0  0  0  0  0  0
   -0.5990    1.2880    0.0000 C   0  0  0  0  0  0  0  0  0  0  0  0
    0.8300   -0.3620    0.0000 C   0  0  1  0  0  0  0  0  0  0  0  0
    1.5440    0.0500    0.0000 C   0  0  1  0  0  0  0  0  0  0  0  0
    1.5440    0.8750    0.0000 C   0  0  1  0  0  0  0  0  0  0  0  0
    0.8300    1.2880    0.0000 C   0  0  0  0  0  0  0  0  0  0  0  0
    2.4480    0.7040    0.0000 N   0  0  0  0  0  0  0  0  0  0  0  0
    1.9130   -0.9930    0.0000 C   0  0  0  0  0  0  0  0  0  0  0  0
    0.4170   -1.0770    0.0000 C   0  0  0  0  0  0  0  0  0  0  0  0
    2.6070   -0.5860    0.0000 C   0  0  0  0  0  0  0  0  0  0  0  0
    2.2560   -0.3610    0.0000 C   0  0  0  0  0  0  0  0  0  0  0  0
    3.0470    1.2660    0.0000 C   0  0  1  0  0  0  0  0  0  0  0  0
    3.8340    1.0280    0.0000 C   0  0  0  0  0  0  0  0  0  0  0  0
    4.0220    0.2240    0.0000 C   0  0  0  0  0  0  0  0  0  0  0  0
    4.8110   -0.0150    0.0000 C   0  0  0  0  0  0  0  0  0  0  0  0
    5.4140    0.5490    0.0000 C   0  0  0  0  0  0  0  0  0  0  0  0
    5.2260    1.3530    0.0000 C   0  0  0  0  0  0  0  0  0  0  0  0
    4.4360    1.5920    0.0000 C   0  0  0  0  0  0  0  0  0  0  0  0
    6.2010    0.3110    0.0000 F   0  0  0  0  0  0  0  0  0  0  0  0
    4.2490    2.3950    0.0000 Cl  0  0  0  0  0  0  0  0  0  0  0  0
   -2.0260   -0.3610    0.0000 N   0  0  0  0  0  0  0  0  0  0  0  0
    2.8600    2.0690    0.0000 C   0  0  0  0  0  0  0  0  0  0  0  0
    3.4620    2.6330    0.0000 C   0  0  0  0  0  0  0  0  0  0  0  0
   -2.7380    0.0500    0.0000 C   0  0  0  0  0  0  0  0  0  0  0  0
   -3.4500   -0.3610    0.0000 C   0  0  0  0  0  0  0  0  0  0  0  0
   -4.2010   -0.0270    0.0000 C   0  0  0  0  0  0  0  0  0  0  0  0
   -4.3400   -1.3500    0.0000 N   0  0  0  0  0  0  0  0  0  0  0  0
   -3.5360   -1.1790    0.0000 N   0  0  0  0  0  0  0  0  0  0  0  0
   -4.7510   -0.6380    0.0000 C   0  0  0  0  0  0  0  0  0  0  0  0
   -5.5690   -0.5520    0.0000 C   0  0  0  0  0  0  0  0  0  0  0  0
   -5.9030    0.1990    0.0000 O   0  0  0  0  0  0  0  0  0  0  0  0
   -6.0520   -1.2170    0.0000 O   0  0  0  0  0  0  0  0  0  0  0  0
   -5.7170   -1.9680    0.0000 C   0  0  0  0  0  0  0  0  0  0  0  0
   -6.2010   -2.6330    0.0000 C   0  0  0  0  0  0  0  0  0  0  0  0
  1  2  2  0  0  0  0
  1  6  1  0  0  0  0
  2  3  1  0  0  0  0
  2 25  1  0  0  0  0
  3  4  2  0  0  0  0
  4  5  1  0  0  0  0
  4  7  1  0  0  0  0
  5  6  2  0  0  0  0
  5 10  1  0  0  0  0
  7  8  1  0  0  0  0
  7 12  1  0  0  0  0
  7 13  1  6  0  0  0
  8  9  1  0  0  0  0
  8 15  1  1  0  0  0
  9 10  1  0  0  0  0
  9 11  1  1  0  0  0
 11 14  1  0  0  0  0
 11 16  1  0  0  0  0
 12 14  1  0  0  0  0
 16 17  1  6  0  0  0
 16 26  1  0  0  0  0
 17 18  1  0  0  0  0
 17 22  2  0  0  0  0
 18 19  2  0  0  0  0
 19 20  1  0  0  0  0
 20 21  2  0  0  0  0
 20 23  1  0  0  0  0
 21 22  1  0  0  0  0
 22 24  1  0  0  0  0
 25 28  1  0  0  0  0
 26 27  1  0  0  0  0
 28 29  1  0  0  0  0
 29 30  1  0  0  0  0
 29 32  2  0  0  0  0
 30 33  2  0  0  0  0
 31 32  1  0  0  0  0
 31 33  1  0  0  0  0
 33 34  1  0  0  0  0
 34 35  2  0  0  0  0
 34 36  1  0  0  0  0
 36 37  1  0  0  0  0
 37 38  1  0  0  0  0
M  END
$$$$
20220309-structures drawed for LXR-18292-203-better than 18292(68).sdf
  MOE2020           2D

 36 41  0  0  1  0  0  0  0  0999 V2000
   -1.6630    0.2330    0.0000 C   0  0  0  0  0  0  0  0  0  0  0  0
   -1.6630   -0.5920    0.0000 C   0  0  0  0  0  0  0  0  0  0  0  0
   -0.9490   -1.0040    0.0000 C   0  0  0  0  0  0  0  0  0  0  0  0
   -0.2340   -0.5920    0.0000 C   0  0  0  0  0  0  0  0  0  0  0  0
   -0.2340    0.2330    0.0000 C   0  0  0  0  0  0  0  0  0  0  0  0
   -0.9490    0.6460    0.0000 C   0  0  0  0  0  0  0  0  0  0  0  0
    0.4800   -1.0040    0.0000 C   0  0  1  0  0  0  0  0  0  0  0  0
    1.1940   -0.5920    0.0000 C   0  0  1  0  0  0  0  0  0  0  0  0
    1.1940    0.2330    0.0000 C   0  0  1  0  0  0  0  0  0  0  0  0
    0.4800    0.6460    0.0000 C   0  0  0  0  0  0  0  0  0  0  0  0
    2.0980    0.0620    0.0000 N   0  0  0  0  0  0  0  0  0  0  0  0
    1.5640   -1.6340    0.0000 C   0  0  0  0  0  0  0  0  0  0  0  0
    0.0680   -1.7190    0.0000 C   0  0  0  0  0  0  0  0  0  0  0  0
    2.2580   -1.2280    0.0000 C   0  0  0  0  0  0  0  0  0  0  0  0
    1.9070   -1.0030    0.0000 C   0  0  0  0  0  0  0  0  0  0  0  0
    2.6980    0.6240    0.0000 C   0  0  1  0  0  0  0  0  0  0  0  0
    3.4850    0.3860    0.0000 C   0  0  0  0  0  0  0  0  0  0  0  0
    3.6720   -0.4180    0.0000 C   0  0  0  0  0  0  0  0  0  0  0  0
    4.4620   -0.6570    0.0000 C   0  0  0  0  0  0  0  0  0  0  0  0
    5.0640   -0.0930    0.0000 C   0  0  0  0  0  0  0  0  0  0  0  0
    4.8760    0.7110    0.0000 C   0  0  0  0  0  0  0  0  0  0  0  0
    4.0870    0.9500    0.0000 C   0  0  0  0  0  0  0  0  0  0  0  0
    5.8510   -0.3310    0.0000 F   0  0  0  0  0  0  0  0  0  0  0  0
    3.8990    1.7530    0.0000 Cl  0  0  0  0  0  0  0  0  0  0  0  0
   -2.3750   -1.0030    0.0000 N   0  0  0  0  0  0  0  0  0  0  0  0
    2.5100    1.4270    0.0000 C   0  0  0  0  0  0  0  0  0  0  0  0
    3.1120    1.9920    0.0000 C   0  0  0  0  0  0  0  0  0  0  0  0
   -3.0870   -0.5920    0.0000 C   0  0  0  0  0  0  0  0  0  0  0  0
   -3.7990   -1.0030    0.0000 C   0  0  0  0  0  0  0  0  0  0  0  0
   -4.5500   -0.6690    0.0000 C   0  0  0  0  0  0  0  0  0  0  0  0
   -5.1000   -1.2800    0.0000 C   0  0  0  0  0  0  0  0  0  0  0  0
   -4.6890   -1.9920    0.0000 N   0  0  0  0  0  0  0  0  0  0  0  0
   -3.8850   -1.8210    0.0000 N   0  0  0  0  0  0  0  0  0  0  0  0
   -4.9620    0.0430    0.0000 O   0  0  0  0  0  0  0  0  0  0  0  0
   -5.7650   -0.1280    0.0000 C   0  0  0  0  0  0  0  0  0  0  0  0
   -5.8510   -0.9450    0.0000 N   0  0  0  0  0  0  0  0  0  0  0  0
  1  2  2  0  0  0  0
  1  6  1  0  0  0  0
  2  3  1  0  0  0  0
  2 25  1  0  0  0  0
  3  4  2  0  0  0  0
  4  5  1  0  0  0  0
  4  7  1  0  0  0  0
  5  6  2  0  0  0  0
  5 10  1  0  0  0  0
  7  8  1  0  0  0  0
  7 12  1  0  0  0  0
  7 13  1  6  0  0  0
  8  9  1  0  0  0  0
  8 15  1  1  0  0  0
  9 10  1  0  0  0  0
  9 11  1  1  0  0  0
 11 14  1  0  0  0  0
 11 16  1  0  0  0  0
 12 14  1  0  0  0  0
 16 17  1  6  0  0  0
 16 26  1  0  0  0  0
 17 18  1  0  0  0  0
 17 22  2  0  0  0  0
 18 19  2  0  0  0  0
 19 20  1  0  0  0  0
 20 21  2  0  0  0  0
 20 23  1  0  0  0  0
 21 22  1  0  0  0  0
 22 24  1  0  0  0  0
 25 28  1  0  0  0  0
 26 27  1  0  0  0  0
 28 29  1  0  0  0  0
 29 30  1  0  0  0  0
 29 33  2  0  0  0  0
 30 31  2  0  0  0  0
 30 34  1  0  0  0  0
 31 32  1  0  0  0  0
 31 36  1  0  0  0  0
 32 33  1  0  0  0  0
 34 35  1  0  0  0  0
 35 36  2  0  0  0  0
M  END
$$$$
20220309-structures drawed for LXR-18292-203-better than 18292(68).sdf
  MOE2020           2D

 37 42  0  0  1  0  0  0  0  0999 V2000
   -1.6630    0.2330    0.0000 C   0  0  0  0  0  0  0  0  0  0  0  0
   -1.6630   -0.5920    0.0000 C   0  0  0  0  0  0  0  0  0  0  0  0
   -0.9490   -1.0040    0.0000 C   0  0  0  0  0  0  0  0  0  0  0  0
   -0.2340   -0.5920    0.0000 C   0  0  0  0  0  0  0  0  0  0  0  0
   -0.2340    0.2330    0.0000 C   0  0  0  0  0  0  0  0  0  0  0  0
   -0.9490    0.6460    0.0000 C   0  0  0  0  0  0  0  0  0  0  0  0
    0.4800   -1.0040    0.0000 C   0  0  1  0  0  0  0  0  0  0  0  0
    1.1940   -0.5920    0.0000 C   0  0  1  0  0  0  0  0  0  0  0  0
    1.1940    0.2330    0.0000 C   0  0  1  0  0  0  0  0  0  0  0  0
    0.4800    0.6460    0.0000 C   0  0  0  0  0  0  0  0  0  0  0  0
    2.0980    0.0620    0.0000 N   0  0  0  0  0  0  0  0  0  0  0  0
    1.5640   -1.6340    0.0000 C   0  0  0  0  0  0  0  0  0  0  0  0
    0.0680   -1.7190    0.0000 C   0  0  0  0  0  0  0  0  0  0  0  0
    2.2580   -1.2280    0.0000 C   0  0  0  0  0  0  0  0  0  0  0  0
    1.9070   -1.0030    0.0000 C   0  0  0  0  0  0  0  0  0  0  0  0
    2.6980    0.6240    0.0000 C   0  0  1  0  0  0  0  0  0  0  0  0
    3.4850    0.3860    0.0000 C   0  0  0  0  0  0  0  0  0  0  0  0
    3.6720   -0.4180    0.0000 C   0  0  0  0  0  0  0  0  0  0  0  0
    4.4620   -0.6570    0.0000 C   0  0  0  0  0  0  0  0  0  0  0  0
    5.0640   -0.0930    0.0000 C   0  0  0  0  0  0  0  0  0  0  0  0
    4.8760    0.7110    0.0000 C   0  0  0  0  0  0  0  0  0  0  0  0
    4.0870    0.9500    0.0000 C   0  0  0  0  0  0  0  0  0  0  0  0
    5.8510   -0.3310    0.0000 F   0  0  0  0  0  0  0  0  0  0  0  0
    3.8990    1.7530    0.0000 Cl  0  0  0  0  0  0  0  0  0  0  0  0
   -2.3750   -1.0030    0.0000 N   0  0  0  0  0  0  0  0  0  0  0  0
    2.5100    1.4270    0.0000 C   0  0  0  0  0  0  0  0  0  0  0  0
    3.1120    1.9920    0.0000 C   0  0  0  0  0  0  0  0  0  0  0  0
   -3.0870   -0.5920    0.0000 C   0  0  0  0  0  0  0  0  0  0  0  0
   -3.7990   -1.0030    0.0000 C   0  0  0  0  0  0  0  0  0  0  0  0
   -4.5500   -0.6690    0.0000 C   0  0  0  0  0  0  0  0  0  0  0  0
   -5.1000   -1.2800    0.0000 C   0  0  0  0  0  0  0  0  0  0  0  0
   -4.6890   -1.9920    0.0000 N   0  0  0  0  0  0  0  0  0  0  0  0
   -3.8850   -1.8210    0.0000 N   0  0  0  0  0  0  0  0  0  0  0  0
   -4.9620    0.0430    0.0000 C   0  0  0  0  0  0  0  0  0  0  0  0
   -5.7650   -0.1280    0.0000 N   0  0  0  0  0  0  0  0  0  0  0  0
   -5.8510   -0.9450    0.0000 C   0  0  0  0  0  0  0  0  0  0  0  0
   -4.6260    0.7970    0.0000 O   0  0  0  0  0  0  0  0  0  0  0  0
  1  2  2  0  0  0  0
  1  6  1  0  0  0  0
  2  3  1  0  0  0  0
  2 25  1  0  0  0  0
  3  4  2  0  0  0  0
  4  5  1  0  0  0  0
  4  7  1  0  0  0  0
  5  6  2  0  0  0  0
  5 10  1  0  0  0  0
  7  8  1  0  0  0  0
  7 12  1  0  0  0  0
  7 13  1  6  0  0  0
  8  9  1  0  0  0  0
  8 15  1  1  0  0  0
  9 10  1  0  0  0  0
  9 11  1  1  0  0  0
 11 14  1  0  0  0  0
 11 16  1  0  0  0  0
 12 14  1  0  0  0  0
 16 17  1  6  0  0  0
 16 26  1  0  0  0  0
 17 18  1  0  0  0  0
 17 22  2  0  0  0  0
 18 19  2  0  0  0  0
 19 20  1  0  0  0  0
 20 21  2  0  0  0  0
 20 23  1  0  0  0  0
 21 22  1  0  0  0  0
 22 24  1  0  0  0  0
 25 28  1  0  0  0  0
 26 27  1  0  0  0  0
 28 29  1  0  0  0  0
 29 30  1  0  0  0  0
 29 33  2  0  0  0  0
 30 31  2  0  0  0  0
 30 34  1  0  0  0  0
 31 32  1  0  0  0  0
 31 36  1  0  0  0  0
 32 33  1  0  0  0  0
 34 35  1  0  0  0  0
 34 37  2  0  0  0  0
 35 36  1  0  0  0  0
M  END
$$$$
20220309-structures drawed for LXR-18292-203-better than 18292(68).sdf
  MOE2020           2D

 37 42  0  0  1  0  0  0  0  0999 V2000
   -1.3990    0.2330    0.0000 C   0  0  0  0  0  0  0  0  0  0  0  0
   -1.3990   -0.5920    0.0000 C   0  0  0  0  0  0  0  0  0  0  0  0
   -0.6850   -1.0040    0.0000 C   0  0  0  0  0  0  0  0  0  0  0  0
    0.0300   -0.5920    0.0000 C   0  0  0  0  0  0  0  0  0  0  0  0
    0.0300    0.2330    0.0000 C   0  0  0  0  0  0  0  0  0  0  0  0
   -0.6850    0.6460    0.0000 C   0  0  0  0  0  0  0  0  0  0  0  0
    0.7440   -1.0040    0.0000 C   0  0  1  0  0  0  0  0  0  0  0  0
    1.4580   -0.5920    0.0000 C   0  0  1  0  0  0  0  0  0  0  0  0
    1.4580    0.2330    0.0000 C   0  0  1  0  0  0  0  0  0  0  0  0
    0.7440    0.6460    0.0000 C   0  0  0  0  0  0  0  0  0  0  0  0
    2.3620    0.0620    0.0000 N   0  0  0  0  0  0  0  0  0  0  0  0
    1.8270   -1.6340    0.0000 C   0  0  0  0  0  0  0  0  0  0  0  0
    0.3310   -1.7190    0.0000 C   0  0  0  0  0  0  0  0  0  0  0  0
    2.5220   -1.2280    0.0000 C   0  0  0  0  0  0  0  0  0  0  0  0
    2.1700   -1.0030    0.0000 C   0  0  0  0  0  0  0  0  0  0  0  0
    2.9620    0.6240    0.0000 C   0  0  1  0  0  0  0  0  0  0  0  0
    3.7490    0.3860    0.0000 C   0  0  0  0  0  0  0  0  0  0  0  0
    3.9360   -0.4180    0.0000 C   0  0  0  0  0  0  0  0  0  0  0  0
    4.7260   -0.6570    0.0000 C   0  0  0  0  0  0  0  0  0  0  0  0
    5.3280   -0.0930    0.0000 C   0  0  0  0  0  0  0  0  0  0  0  0
    5.1400    0.7110    0.0000 C   0  0  0  0  0  0  0  0  0  0  0  0
    4.3500    0.9500    0.0000 C   0  0  0  0  0  0  0  0  0  0  0  0
    6.1150   -0.3310    0.0000 F   0  0  0  0  0  0  0  0  0  0  0  0
    4.1630    1.7530    0.0000 Cl  0  0  0  0  0  0  0  0  0  0  0  0
   -2.1120   -1.0030    0.0000 N   0  0  0  0  0  0  0  0  0  0  0  0
    2.7740    1.4270    0.0000 C   0  0  0  0  0  0  0  0  0  0  0  0
    3.3760    1.9920    0.0000 C   0  0  0  0  0  0  0  0  0  0  0  0
   -2.8240   -0.5920    0.0000 C   0  0  0  0  0  0  0  0  0  0  0  0
   -3.5350   -1.0030    0.0000 C   0  0  0  0  0  0  0  0  0  0  0  0
   -4.2860   -0.6690    0.0000 C   0  0  0  0  0  0  0  0  0  0  0  0
   -4.8360   -1.2800    0.0000 C   0  0  0  0  0  0  0  0  0  0  0  0
   -4.4260   -1.9920    0.0000 N   0  0  0  0  0  0  0  0  0  0  0  0
   -3.6210   -1.8210    0.0000 N   0  0  0  0  0  0  0  0  0  0  0  0
   -4.6980    0.0430    0.0000 N   0  0  0  0  0  0  0  0  0  0  0  0
   -5.5010   -0.1280    0.0000 C   0  0  0  0  0  0  0  0  0  0  0  0
   -5.5870   -0.9450    0.0000 C   0  0  0  0  0  0  0  0  0  0  0  0
   -6.1150    0.4240    0.0000 O   0  0  0  0  0  0  0  0  0  0  0  0
  1  2  2  0  0  0  0
  1  6  1  0  0  0  0
  2  3  1  0  0  0  0
  2 25  1  0  0  0  0
  3  4  2  0  0  0  0
  4  5  1  0  0  0  0
  4  7  1  0  0  0  0
  5  6  2  0  0  0  0
  5 10  1  0  0  0  0
  7  8  1  0  0  0  0
  7 12  1  0  0  0  0
  7 13  1  6  0  0  0
  8  9  1  0  0  0  0
  8 15  1  1  0  0  0
  9 10  1  0  0  0  0
  9 11  1  1  0  0  0
 11 14  1  0  0  0  0
 11 16  1  0  0  0  0
 12 14  1  0  0  0  0
 16 17  1  6  0  0  0
 16 26  1  0  0  0  0
 17 18  1  0  0  0  0
 17 22  2  0  0  0  0
 18 19  2  0  0  0  0
 19 20  1  0  0  0  0
 20 21  2  0  0  0  0
 20 23  1  0  0  0  0
 21 22  1  0  0  0  0
 22 24  1  0  0  0  0
 25 28  1  0  0  0  0
 26 27  1  0  0  0  0
 28 29  1  0  0  0  0
 29 30  1  0  0  0  0
 29 33  2  0  0  0  0
 30 31  2  0  0  0  0
 30 34  1  0  0  0  0
 31 32  1  0  0  0  0
 31 36  1  0  0  0  0
 32 33  1  0  0  0  0
 34 35  1  0  0  0  0
 35 36  1  0  0  0  0
 35 37  2  0  0  0  0
M  END
$$$$
20220309-structures drawed for LXR-18292-203-better than 18292(68).sdf
  MOE2020           2D

 40 44  0  0  1  0  0  0  0  0999 V2000
   -1.8320   -0.1460    0.0000 C   0  0  0  0  0  0  0  0  0  0  0  0
   -1.8320   -0.9700    0.0000 C   0  0  0  0  0  0  0  0  0  0  0  0
   -1.1170   -1.3830    0.0000 C   0  0  0  0  0  0  0  0  0  0  0  0
   -0.4030   -0.9700    0.0000 C   0  0  0  0  0  0  0  0  0  0  0  0
   -0.4030   -0.1460    0.0000 C   0  0  0  0  0  0  0  0  0  0  0  0
   -1.1170    0.2670    0.0000 C   0  0  0  0  0  0  0  0  0  0  0  0
    0.3120   -1.3830    0.0000 C   0  0  1  0  0  0  0  0  0  0  0  0
    1.0260   -0.9700    0.0000 C   0  0  1  0  0  0  0  0  0  0  0  0
    1.0260   -0.1460    0.0000 C   0  0  1  0  0  0  0  0  0  0  0  0
    0.3120    0.2670    0.0000 C   0  0  0  0  0  0  0  0  0  0  0  0
    1.9300   -0.3170    0.0000 N   0  0  0  0  0  0  0  0  0  0  0  0
    1.3950   -2.0130    0.0000 C   0  0  0  0  0  0  0  0  0  0  0  0
   -0.1010   -2.0970    0.0000 C   0  0  0  0  0  0  0  0  0  0  0  0
    2.0890   -1.6060    0.0000 C   0  0  0  0  0  0  0  0  0  0  0  0
    1.7380   -1.3810    0.0000 C   0  0  0  0  0  0  0  0  0  0  0  0
    2.5290    0.2450    0.0000 C   0  0  1  0  0  0  0  0  0  0  0  0
    3.3170    0.0070    0.0000 C   0  0  0  0  0  0  0  0  0  0  0  0
    3.5040   -0.7960    0.0000 C   0  0  0  0  0  0  0  0  0  0  0  0
    4.2930   -1.0350    0.0000 C   0  0  0  0  0  0  0  0  0  0  0  0
    4.8960   -0.4720    0.0000 C   0  0  0  0  0  0  0  0  0  0  0  0
    4.7080    0.3320    0.0000 C   0  0  0  0  0  0  0  0  0  0  0  0
    3.9180    0.5710    0.0000 C   0  0  0  0  0  0  0  0  0  0  0  0
    5.6830   -0.7100    0.0000 F   0  0  0  0  0  0  0  0  0  0  0  0
    3.7310    1.3740    0.0000 Cl  0  0  0  0  0  0  0  0  0  0  0  0
   -2.5440   -1.3820    0.0000 N   0  0  0  0  0  0  0  0  0  0  0  0
    2.3420    1.0480    0.0000 C   0  0  0  0  0  0  0  0  0  0  0  0
    2.9440    1.6130    0.0000 C   0  0  0  0  0  0  0  0  0  0  0  0
   -3.2580   -0.9690    0.0000 C   0  0  0  0  0  0  0  0  0  0  0  0
   -3.9730   -1.3820    0.0000 C   0  0  0  0  0  0  0  0  0  0  0  0
   -4.7270   -1.0470    0.0000 C   0  0  0  0  0  0  0  0  0  0  0  0
   -5.2780   -1.6600    0.0000 C   0  0  0  0  0  0  0  0  0  0  0  0
   -4.8660   -2.3750    0.0000 N   0  0  0  0  0  0  0  0  0  0  0  0
   -4.0590   -2.2030    0.0000 C   0  0  0  0  0  0  0  0  0  0  0  0
   -4.8980   -0.2400    0.0000 C   0  0  0  0  0  0  0  0  0  0  0  0
   -5.6830    0.0150    0.0000 O   0  0  0  0  0  0  0  0  0  0  0  0
   -4.2850    0.3120    0.0000 N   0  0  0  0  0  0  0  0  0  0  0  0
   -4.2850    1.1370    0.0000 C   0  0  0  0  0  0  0  0  0  0  0  0
   -3.5700    1.5500    0.0000 C   0  0  0  0  0  0  0  0  0  0  0  0
   -3.5700    2.3750    0.0000 O   0  0  0  0  0  0  0  0  0  0  0  0
   -2.8560    1.1370    0.0000 O   0  0  0  0  0  0  0  0  0  0  0  0
  1  2  2  0  0  0  0
  1  6  1  0  0  0  0
  2  3  1  0  0  0  0
  2 25  1  0  0  0  0
  3  4  2  0  0  0  0
  4  5  1  0  0  0  0
  4  7  1  0  0  0  0
  5  6  2  0  0  0  0
  5 10  1  0  0  0  0
  7  8  1  0  0  0  0
  7 12  1  0  0  0  0
  7 13  1  6  0  0  0
  8  9  1  0  0  0  0
  8 15  1  1  0  0  0
  9 10  1  0  0  0  0
  9 11  1  1  0  0  0
 11 14  1  0  0  0  0
 11 16  1  0  0  0  0
 12 14  1  0  0  0  0
 16 17  1  6  0  0  0
 16 26  1  0  0  0  0
 17 18  1  0  0  0  0
 17 22  2  0  0  0  0
 18 19  2  0  0  0  0
 19 20  1  0  0  0  0
 20 21  2  0  0  0  0
 20 23  1  0  0  0  0
 21 22  1  0  0  0  0
 22 24  1  0  0  0  0
 25 28  1  0  0  0  0
 26 27  1  0  0  0  0
 28 29  1  0  0  0  0
 29 30  1  0  0  0  0
 29 33  2  0  0  0  0
 30 31  2  0  0  0  0
 30 34  1  0  0  0  0
 31 32  1  0  0  0  0
 32 33  1  0  0  0  0
 34 35  2  0  0  0  0
 34 36  1  0  0  0  0
 36 37  1  0  0  0  0
 37 38  1  0  0  0  0
 38 39  1  0  0  0  0
 38 40  2  0  0  0  0
M  END
$$$$
20220309-structures drawed for LXR-18292-203-better than 18292(68).sdf
  MOE2020           2D

 41 45  0  0  1  0  0  0  0  0999 V2000
   -1.8320   -0.3520    0.0000 C   0  0  0  0  0  0  0  0  0  0  0  0
   -1.8320   -1.1770    0.0000 C   0  0  0  0  0  0  0  0  0  0  0  0
   -1.1170   -1.5890    0.0000 C   0  0  0  0  0  0  0  0  0  0  0  0
   -0.4030   -1.1770    0.0000 C   0  0  0  0  0  0  0  0  0  0  0  0
   -0.4030   -0.3520    0.0000 C   0  0  0  0  0  0  0  0  0  0  0  0
   -1.1170    0.0610    0.0000 C   0  0  0  0  0  0  0  0  0  0  0  0
    0.3120   -1.5890    0.0000 C   0  0  1  0  0  0  0  0  0  0  0  0
    1.0260   -1.1770    0.0000 C   0  0  1  0  0  0  0  0  0  0  0  0
    1.0260   -0.3520    0.0000 C   0  0  1  0  0  0  0  0  0  0  0  0
    0.3120    0.0610    0.0000 C   0  0  0  0  0  0  0  0  0  0  0  0
    1.9300   -0.5230    0.0000 N   0  0  0  0  0  0  0  0  0  0  0  0
    1.3950   -2.2200    0.0000 C   0  0  0  0  0  0  0  0  0  0  0  0
   -0.1010   -2.3040    0.0000 C   0  0  0  0  0  0  0  0  0  0  0  0
    2.0890   -1.8130    0.0000 C   0  0  0  0  0  0  0  0  0  0  0  0
    1.7380   -1.5880    0.0000 C   0  0  0  0  0  0  0  0  0  0  0  0
    2.5290    0.0390    0.0000 C   0  0  1  0  0  0  0  0  0  0  0  0
    3.3170   -0.1990    0.0000 C   0  0  0  0  0  0  0  0  0  0  0  0
    3.5040   -1.0030    0.0000 C   0  0  0  0  0  0  0  0  0  0  0  0
    4.2930   -1.2420    0.0000 C   0  0  0  0  0  0  0  0  0  0  0  0
    4.8960   -0.6780    0.0000 C   0  0  0  0  0  0  0  0  0  0  0  0
    4.7080    0.1260    0.0000 C   0  0  0  0  0  0  0  0  0  0  0  0
    3.9180    0.3650    0.0000 C   0  0  0  0  0  0  0  0  0  0  0  0
    5.6830   -0.9160    0.0000 F   0  0  0  0  0  0  0  0  0  0  0  0
    3.7310    1.1680    0.0000 Cl  0  0  0  0  0  0  0  0  0  0  0  0
   -2.5440   -1.5880    0.0000 N   0  0  0  0  0  0  0  0  0  0  0  0
    2.3420    0.8420    0.0000 C   0  0  0  0  0  0  0  0  0  0  0  0
    2.9440    1.4060    0.0000 C   0  0  0  0  0  0  0  0  0  0  0  0
   -3.2580   -1.1760    0.0000 C   0  0  0  0  0  0  0  0  0  0  0  0
   -3.9730   -1.5890    0.0000 C   0  0  0  0  0  0  0  0  0  0  0  0
   -4.7270   -1.2530    0.0000 C   0  0  0  0  0  0  0  0  0  0  0  0
   -5.2780   -1.8670    0.0000 C   0  0  0  0  0  0  0  0  0  0  0  0
   -4.8660   -2.5810    0.0000 N   0  0  0  0  0  0  0  0  0  0  0  0
   -4.0590   -2.4090    0.0000 C   0  0  0  0  0  0  0  0  0  0  0  0
   -4.8980   -0.4460    0.0000 C   0  0  0  0  0  0  0  0  0  0  0  0
   -5.6830   -0.1910    0.0000 O   0  0  0  0  0  0  0  0  0  0  0  0
   -4.2850    0.1060    0.0000 N   0  0  0  0  0  0  0  0  0  0  0  0
   -4.2850    0.9310    0.0000 C   0  0  0  0  0  0  0  0  0  0  0  0
   -3.5700    1.3440    0.0000 C   0  0  0  0  0  0  0  0  0  0  0  0
   -3.5700    2.1680    0.0000 C   0  0  0  0  0  0  0  0  0  0  0  0
   -2.8560    2.5810    0.0000 O   0  0  0  0  0  0  0  0  0  0  0  0
   -4.2850    2.5810    0.0000 O   0  0  0  0  0  0  0  0  0  0  0  0
  1  2  2  0  0  0  0
  1  6  1  0  0  0  0
  2  3  1  0  0  0  0
  2 25  1  0  0  0  0
  3  4  2  0  0  0  0
  4  5  1  0  0  0  0
  4  7  1  0  0  0  0
  5  6  2  0  0  0  0
  5 10  1  0  0  0  0
  7  8  1  0  0  0  0
  7 12  1  0  0  0  0
  7 13  1  6  0  0  0
  8  9  1  0  0  0  0
  8 15  1  1  0  0  0
  9 10  1  0  0  0  0
  9 11  1  1  0  0  0
 11 14  1  0  0  0  0
 11 16  1  0  0  0  0
 12 14  1  0  0  0  0
 16 17  1  6  0  0  0
 16 26  1  0  0  0  0
 17 18  1  0  0  0  0
 17 22  2  0  0  0  0
 18 19  2  0  0  0  0
 19 20  1  0  0  0  0
 20 21  2  0  0  0  0
 20 23  1  0  0  0  0
 21 22  1  0  0  0  0
 22 24  1  0  0  0  0
 25 28  1  0  0  0  0
 26 27  1  0  0  0  0
 28 29  1  0  0  0  0
 29 30  1  0  0  0  0
 29 33  2  0  0  0  0
 30 31  2  0  0  0  0
 30 34  1  0  0  0  0
 31 32  1  0  0  0  0
 32 33  1  0  0  0  0
 34 35  2  0  0  0  0
 34 36  1  0  0  0  0
 36 37  1  0  0  0  0
 37 38  1  0  0  0  0
 38 39  1  0  0  0  0
 39 40  1  0  0  0  0
 39 41  2  0  0  0  0
M  END
$$$$
20220309-structures drawed for LXR-18292-203-better than 18292(68).sdf
  MOE2020           2D

 42 46  0  0  1  0  0  0  0  0999 V2000
   -1.8320   -0.7640    0.0000 C   0  0  0  0  0  0  0  0  0  0  0  0
   -1.8320   -1.5890    0.0000 C   0  0  0  0  0  0  0  0  0  0  0  0
   -1.1170   -2.0020    0.0000 C   0  0  0  0  0  0  0  0  0  0  0  0
   -0.4030   -1.5890    0.0000 C   0  0  0  0  0  0  0  0  0  0  0  0
   -0.4030   -0.7640    0.0000 C   0  0  0  0  0  0  0  0  0  0  0  0
   -1.1170   -0.3520    0.0000 C   0  0  0  0  0  0  0  0  0  0  0  0
    0.3120   -2.0020    0.0000 C   0  0  1  0  0  0  0  0  0  0  0  0
    1.0260   -1.5890    0.0000 C   0  0  1  0  0  0  0  0  0  0  0  0
    1.0260   -0.7640    0.0000 C   0  0  1  0  0  0  0  0  0  0  0  0
    0.3120   -0.3520    0.0000 C   0  0  0  0  0  0  0  0  0  0  0  0
    1.9300   -0.9360    0.0000 N   0  0  0  0  0  0  0  0  0  0  0  0
    1.3950   -2.6320    0.0000 C   0  0  0  0  0  0  0  0  0  0  0  0
   -0.1010   -2.7160    0.0000 C   0  0  0  0  0  0  0  0  0  0  0  0
    2.0890   -2.2250    0.0000 C   0  0  0  0  0  0  0  0  0  0  0  0
    1.7380   -2.0000    0.0000 C   0  0  0  0  0  0  0  0  0  0  0  0
    2.5290   -0.3740    0.0000 C   0  0  1  0  0  0  0  0  0  0  0  0
    3.3170   -0.6120    0.0000 C   0  0  0  0  0  0  0  0  0  0  0  0
    3.5040   -1.4150    0.0000 C   0  0  0  0  0  0  0  0  0  0  0  0
    4.2930   -1.6540    0.0000 C   0  0  0  0  0  0  0  0  0  0  0  0
    4.8960   -1.0900    0.0000 C   0  0  0  0  0  0  0  0  0  0  0  0
    4.7080   -0.2860    0.0000 C   0  0  0  0  0  0  0  0  0  0  0  0
    3.9180   -0.0480    0.0000 C   0  0  0  0  0  0  0  0  0  0  0  0
    5.6830   -1.3290    0.0000 F   0  0  0  0  0  0  0  0  0  0  0  0
    3.7310    0.7560    0.0000 Cl  0  0  0  0  0  0  0  0  0  0  0  0
   -2.5440   -2.0010    0.0000 N   0  0  0  0  0  0  0  0  0  0  0  0
    2.3420    0.4300    0.0000 C   0  0  0  0  0  0  0  0  0  0  0  0
    2.9440    0.9940    0.0000 C   0  0  0  0  0  0  0  0  0  0  0  0
   -3.2580   -1.5880    0.0000 C   0  0  0  0  0  0  0  0  0  0  0  0
   -3.9730   -2.0010    0.0000 C   0  0  0  0  0  0  0  0  0  0  0  0
   -4.7270   -1.6660    0.0000 C   0  0  0  0  0  0  0  0  0  0  0  0
   -5.2780   -2.2790    0.0000 C   0  0  0  0  0  0  0  0  0  0  0  0
   -4.8660   -2.9940    0.0000 N   0  0  0  0  0  0  0  0  0  0  0  0
   -4.0590   -2.8220    0.0000 C   0  0  0  0  0  0  0  0  0  0  0  0
   -4.8980   -0.8590    0.0000 C   0  0  0  0  0  0  0  0  0  0  0  0
   -5.6830   -0.6040    0.0000 O   0  0  0  0  0  0  0  0  0  0  0  0
   -4.2850   -0.3060    0.0000 N   0  0  0  0  0  0  0  0  0  0  0  0
   -4.2850    0.5180    0.0000 C   0  0  0  0  0  0  0  0  0  0  0  0
   -3.5700    0.9310    0.0000 C   0  0  0  0  0  0  0  0  0  0  0  0
   -3.5700    1.7560    0.0000 C   0  0  0  0  0  0  0  0  0  0  0  0
   -2.8560    2.1680    0.0000 C   0  0  0  0  0  0  0  0  0  0  0  0
   -2.8560    2.9940    0.0000 O   0  0  0  0  0  0  0  0  0  0  0  0
   -2.1420    1.7560    0.0000 O   0  0  0  0  0  0  0  0  0  0  0  0
  1  2  2  0  0  0  0
  1  6  1  0  0  0  0
  2  3  1  0  0  0  0
  2 25  1  0  0  0  0
  3  4  2  0  0  0  0
  4  5  1  0  0  0  0
  4  7  1  0  0  0  0
  5  6  2  0  0  0  0
  5 10  1  0  0  0  0
  7  8  1  0  0  0  0
  7 12  1  0  0  0  0
  7 13  1  6  0  0  0
  8  9  1  0  0  0  0
  8 15  1  1  0  0  0
  9 10  1  0  0  0  0
  9 11  1  1  0  0  0
 11 14  1  0  0  0  0
 11 16  1  0  0  0  0
 12 14  1  0  0  0  0
 16 17  1  6  0  0  0
 16 26  1  0  0  0  0
 17 18  1  0  0  0  0
 17 22  2  0  0  0  0
 18 19  2  0  0  0  0
 19 20  1  0  0  0  0
 20 21  2  0  0  0  0
 20 23  1  0  0  0  0
 21 22  1  0  0  0  0
 22 24  1  0  0  0  0
 25 28  1  0  0  0  0
 26 27  1  0  0  0  0
 28 29  1  0  0  0  0
 29 30  1  0  0  0  0
 29 33  2  0  0  0  0
 30 31  2  0  0  0  0
 30 34  1  0  0  0  0
 31 32  1  0  0  0  0
 32 33  1  0  0  0  0
 34 35  2  0  0  0  0
 34 36  1  0  0  0  0
 36 37  1  0  0  0  0
 37 38  1  0  0  0  0
 38 39  1  0  0  0  0
 39 40  1  0  0  0  0
 40 41  1  0  0  0  0
 40 42  2  0  0  0  0
M  END
$$$$
20220309-structures drawed for LXR-18292-203-better than 18292(68).sdf
  MOE2020           2D

 39 44  0  0  1  0  0  0  0  0999 V2000
   -1.8470    0.2360    0.0000 C   0  0  0  0  0  0  0  0  0  0  0  0
   -1.8470   -0.5900    0.0000 C   0  0  0  0  0  0  0  0  0  0  0  0
   -1.1330   -1.0020    0.0000 C   0  0  0  0  0  0  0  0  0  0  0  0
   -0.4180   -0.5900    0.0000 C   0  0  0  0  0  0  0  0  0  0  0  0
   -0.4180    0.2360    0.0000 C   0  0  0  0  0  0  0  0  0  0  0  0
   -1.1330    0.6480    0.0000 C   0  0  0  0  0  0  0  0  0  0  0  0
    0.2960   -1.0020    0.0000 C   0  0  1  0  0  0  0  0  0  0  0  0
    1.0100   -0.5900    0.0000 C   0  0  1  0  0  0  0  0  0  0  0  0
    1.0100    0.2360    0.0000 C   0  0  1  0  0  0  0  0  0  0  0  0
    0.2960    0.6480    0.0000 C   0  0  0  0  0  0  0  0  0  0  0  0
    1.9140    0.0640    0.0000 N   0  0  0  0  0  0  0  0  0  0  0  0
    1.3790   -1.6320    0.0000 C   0  0  0  0  0  0  0  0  0  0  0  0
   -0.1170   -1.7160    0.0000 C   0  0  0  0  0  0  0  0  0  0  0  0
    2.0740   -1.2260    0.0000 C   0  0  0  0  0  0  0  0  0  0  0  0
    1.7220   -1.0000    0.0000 C   0  0  0  0  0  0  0  0  0  0  0  0
    2.5140    0.6260    0.0000 C   0  0  1  0  0  0  0  0  0  0  0  0
    3.3010    0.3880    0.0000 C   0  0  0  0  0  0  0  0  0  0  0  0
    3.4880   -0.4150    0.0000 C   0  0  0  0  0  0  0  0  0  0  0  0
    4.2780   -0.6540    0.0000 C   0  0  0  0  0  0  0  0  0  0  0  0
    4.8800   -0.0900    0.0000 C   0  0  0  0  0  0  0  0  0  0  0  0
    4.6920    0.7130    0.0000 C   0  0  0  0  0  0  0  0  0  0  0  0
    3.9020    0.9520    0.0000 C   0  0  0  0  0  0  0  0  0  0  0  0
    5.6670   -0.3290    0.0000 F   0  0  0  0  0  0  0  0  0  0  0  0
    3.7150    1.7550    0.0000 Cl  0  0  0  0  0  0  0  0  0  0  0  0
   -2.5600   -1.0010    0.0000 N   0  0  0  0  0  0  0  0  0  0  0  0
    2.3260    1.4290    0.0000 C   0  0  0  0  0  0  0  0  0  0  0  0
    2.9280    1.9940    0.0000 C   0  0  0  0  0  0  0  0  0  0  0  0
   -3.2740   -0.5890    0.0000 C   0  0  0  0  0  0  0  0  0  0  0  0
   -3.9880   -1.0020    0.0000 C   0  0  0  0  0  0  0  0  0  0  0  0
   -4.7420   -0.6660    0.0000 C   0  0  0  0  0  0  0  0  0  0  0  0
   -5.2940   -1.2790    0.0000 C   0  0  0  0  0  0  0  0  0  0  0  0
   -4.8820   -1.9940    0.0000 N   0  0  0  0  0  0  0  0  0  0  0  0
   -4.0740   -1.8220    0.0000 C   0  0  0  0  0  0  0  0  0  0  0  0
   -4.9140    0.1410    0.0000 C   0  0  3  0  0  0  0  0  0  0  0  0
   -4.3610    0.7540    0.0000 C   0  0  0  0  0  0  0  0  0  0  0  0
   -4.7740    1.4680    0.0000 N   0  0  0  0  0  0  0  0  0  0  0  0
   -5.5800    1.2970    0.0000 C   0  0  0  0  0  0  0  0  0  0  0  0
   -5.6670    0.4770    0.0000 C   0  0  0  0  0  0  0  0  0  0  0  0
   -3.5410    0.6670    0.0000 O   0  0  0  0  0  0  0  0  0  0  0  0
  1  2  2  0  0  0  0
  1  6  1  0  0  0  0
  2  3  1  0  0  0  0
  2 25  1  0  0  0  0
  3  4  2  0  0  0  0
  4  5  1  0  0  0  0
  4  7  1  0  0  0  0
  5  6  2  0  0  0  0
  5 10  1  0  0  0  0
  7  8  1  0  0  0  0
  7 12  1  0  0  0  0
  7 13  1  6  0  0  0
  8  9  1  0  0  0  0
  8 15  1  1  0  0  0
  9 10  1  0  0  0  0
  9 11  1  1  0  0  0
 11 14  1  0  0  0  0
 11 16  1  0  0  0  0
 12 14  1  0  0  0  0
 16 17  1  6  0  0  0
 16 26  1  0  0  0  0
 17 18  1  0  0  0  0
 17 22  2  0  0  0  0
 18 19  2  0  0  0  0
 19 20  1  0  0  0  0
 20 21  2  0  0  0  0
 20 23  1  0  0  0  0
 21 22  1  0  0  0  0
 22 24  1  0  0  0  0
 25 28  1  0  0  0  0
 26 27  1  0  0  0  0
 28 29  1  0  0  0  0
 29 30  1  0  0  0  0
 29 33  2  0  0  0  0
 30 31  2  0  0  0  0
 30 34  1  0  0  0  0
 31 32  1  0  0  0  0
 32 33  1  0  0  0  0
 34 35  1  0  0  0  0
 34 38  1  0  0  0  0
 35 36  1  0  0  0  0
 35 39  2  0  0  0  0
 36 37  1  0  0  0  0
 37 38  2  0  0  0  0
M  END
$$$$
20220309-structures drawed for LXR-18292-203-better than 18292(68).sdf
  MOE2020           2D

 38 43  0  0  1  0  0  0  0  0999 V2000
   -1.8470    0.2360    0.0000 C   0  0  0  0  0  0  0  0  0  0  0  0
   -1.8470   -0.5900    0.0000 C   0  0  0  0  0  0  0  0  0  0  0  0
   -1.1330   -1.0020    0.0000 C   0  0  0  0  0  0  0  0  0  0  0  0
   -0.4180   -0.5900    0.0000 C   0  0  0  0  0  0  0  0  0  0  0  0
   -0.4180    0.2360    0.0000 C   0  0  0  0  0  0  0  0  0  0  0  0
   -1.1330    0.6480    0.0000 C   0  0  0  0  0  0  0  0  0  0  0  0
    0.2960   -1.0020    0.0000 C   0  0  1  0  0  0  0  0  0  0  0  0
    1.0100   -0.5900    0.0000 C   0  0  1  0  0  0  0  0  0  0  0  0
    1.0100    0.2360    0.0000 C   0  0  1  0  0  0  0  0  0  0  0  0
    0.2960    0.6480    0.0000 C   0  0  0  0  0  0  0  0  0  0  0  0
    1.9140    0.0640    0.0000 N   0  0  0  0  0  0  0  0  0  0  0  0
    1.3790   -1.6320    0.0000 C   0  0  0  0  0  0  0  0  0  0  0  0
   -0.1170   -1.7160    0.0000 C   0  0  0  0  0  0  0  0  0  0  0  0
    2.0740   -1.2260    0.0000 C   0  0  0  0  0  0  0  0  0  0  0  0
    1.7220   -1.0000    0.0000 C   0  0  0  0  0  0  0  0  0  0  0  0
    2.5140    0.6260    0.0000 C   0  0  1  0  0  0  0  0  0  0  0  0
    3.3010    0.3880    0.0000 C   0  0  0  0  0  0  0  0  0  0  0  0
    3.4880   -0.4150    0.0000 C   0  0  0  0  0  0  0  0  0  0  0  0
    4.2780   -0.6540    0.0000 C   0  0  0  0  0  0  0  0  0  0  0  0
    4.8800   -0.0900    0.0000 C   0  0  0  0  0  0  0  0  0  0  0  0
    4.6920    0.7130    0.0000 C   0  0  0  0  0  0  0  0  0  0  0  0
    3.9020    0.9520    0.0000 C   0  0  0  0  0  0  0  0  0  0  0  0
    5.6670   -0.3290    0.0000 F   0  0  0  0  0  0  0  0  0  0  0  0
    3.7150    1.7550    0.0000 Cl  0  0  0  0  0  0  0  0  0  0  0  0
   -2.5600   -1.0010    0.0000 N   0  0  0  0  0  0  0  0  0  0  0  0
    2.3260    1.4290    0.0000 C   0  0  0  0  0  0  0  0  0  0  0  0
    2.9280    1.9940    0.0000 C   0  0  0  0  0  0  0  0  0  0  0  0
   -3.2740   -0.5890    0.0000 C   0  0  0  0  0  0  0  0  0  0  0  0
   -3.9880   -1.0020    0.0000 C   0  0  0  0  0  0  0  0  0  0  0  0
   -4.7420   -0.6660    0.0000 C   0  0  0  0  0  0  0  0  0  0  0  0
   -5.2940   -1.2790    0.0000 C   0  0  0  0  0  0  0  0  0  0  0  0
   -4.8820   -1.9940    0.0000 N   0  0  0  0  0  0  0  0  0  0  0  0
   -4.0740   -1.8220    0.0000 C   0  0  0  0  0  0  0  0  0  0  0  0
   -4.9140    0.1410    0.0000 C   0  0  0  0  0  0  0  0  0  0  0  0
   -4.3610    0.7540    0.0000 C   0  0  0  0  0  0  0  0  0  0  0  0
   -4.7740    1.4680    0.0000 N   0  0  0  0  0  0  0  0  0  0  0  0
   -5.5800    1.2970    0.0000 N   0  0  0  0  0  0  0  0  0  0  0  0
   -5.6670    0.4770    0.0000 C   0  0  0  0  0  0  0  0  0  0  0  0
  1  2  2  0  0  0  0
  1  6  1  0  0  0  0
  2  3  1  0  0  0  0
  2 25  1  0  0  0  0
  3  4  2  0  0  0  0
  4  5  1  0  0  0  0
  4  7  1  0  0  0  0
  5  6  2  0  0  0  0
  5 10  1  0  0  0  0
  7  8  1  0  0  0  0
  7 12  1  0  0  0  0
  7 13  1  6  0  0  0
  8  9  1  0  0  0  0
  8 15  1  1  0  0  0
  9 10  1  0  0  0  0
  9 11  1  1  0  0  0
 11 14  1  0  0  0  0
 11 16  1  0  0  0  0
 12 14  1  0  0  0  0
 16 17  1  6  0  0  0
 16 26  1  0  0  0  0
 17 18  1  0  0  0  0
 17 22  2  0  0  0  0
 18 19  2  0  0  0  0
 19 20  1  0  0  0  0
 20 21  2  0  0  0  0
 20 23  1  0  0  0  0
 21 22  1  0  0  0  0
 22 24  1  0  0  0  0
 25 28  1  0  0  0  0
 26 27  1  0  0  0  0
 28 29  1  0  0  0  0
 29 30  1  0  0  0  0
 29 33  2  0  0  0  0
 30 31  2  0  0  0  0
 30 34  1  0  0  0  0
 31 32  1  0  0  0  0
 32 33  1  0  0  0  0
 34 35  2  0  0  0  0
 34 38  1  0  0  0  0
 35 36  1  0  0  0  0
 36 37  1  0  0  0  0
 37 38  2  0  0  0  0
M  END
$$$$
20220309-structures drawed for LXR-18292-203-better than 18292(68).sdf
  MOE2020           2D

 36 40  0  0  1  0  0  0  0  0999 V2000
   -2.0340    0.6120    0.0000 C   0  0  0  0  0  0  0  0  0  0  0  0
   -2.0340   -0.2130    0.0000 C   0  0  0  0  0  0  0  0  0  0  0  0
   -1.3190   -0.6250    0.0000 C   0  0  0  0  0  0  0  0  0  0  0  0
   -0.6050   -0.2130    0.0000 C   0  0  0  0  0  0  0  0  0  0  0  0
   -0.6050    0.6120    0.0000 C   0  0  0  0  0  0  0  0  0  0  0  0
   -1.3190    1.0250    0.0000 C   0  0  0  0  0  0  0  0  0  0  0  0
    0.1090   -0.6250    0.0000 C   0  0  1  0  0  0  0  0  0  0  0  0
    0.8240   -0.2130    0.0000 C   0  0  1  0  0  0  0  0  0  0  0  0
    0.8240    0.6120    0.0000 C   0  0  1  0  0  0  0  0  0  0  0  0
    0.1090    1.0250    0.0000 C   0  0  0  0  0  0  0  0  0  0  0  0
    1.7270    0.4410    0.0000 N   0  0  0  0  0  0  0  0  0  0  0  0
    1.1930   -1.2550    0.0000 C   0  0  0  0  0  0  0  0  0  0  0  0
   -0.3030   -1.3400    0.0000 C   0  0  0  0  0  0  0  0  0  0  0  0
    1.8870   -0.8480    0.0000 C   0  0  0  0  0  0  0  0  0  0  0  0
    1.5360   -0.6230    0.0000 C   0  0  0  0  0  0  0  0  0  0  0  0
    2.3270    1.0030    0.0000 C   0  0  1  0  0  0  0  0  0  0  0  0
    3.1140    0.7650    0.0000 C   0  0  0  0  0  0  0  0  0  0  0  0
    3.3020   -0.0380    0.0000 C   0  0  0  0  0  0  0  0  0  0  0  0
    4.0910   -0.2770    0.0000 C   0  0  0  0  0  0  0  0  0  0  0  0
    4.6930    0.2860    0.0000 C   0  0  0  0  0  0  0  0  0  0  0  0
    4.5050    1.0900    0.0000 C   0  0  0  0  0  0  0  0  0  0  0  0
    3.7160    1.3290    0.0000 C   0  0  0  0  0  0  0  0  0  0  0  0
    5.4800    0.0480    0.0000 F   0  0  0  0  0  0  0  0  0  0  0  0
    3.5290    2.1320    0.0000 Cl  0  0  0  0  0  0  0  0  0  0  0  0
   -2.7460   -0.6240    0.0000 N   0  0  0  0  0  0  0  0  0  0  0  0
    2.1400    1.8060    0.0000 C   0  0  0  0  0  0  0  0  0  0  0  0
    2.7410    2.3710    0.0000 C   0  0  0  0  0  0  0  0  0  0  0  0
   -3.4600   -0.2120    0.0000 C   0  0  0  0  0  0  0  0  0  0  0  0
   -4.1750   -0.6240    0.0000 C   0  0  0  0  0  0  0  0  0  0  0  0
   -4.9290   -0.2890    0.0000 C   0  0  0  0  0  0  0  0  0  0  0  0
   -5.4800   -0.9020    0.0000 C   0  0  0  0  0  0  0  0  0  0  0  0
   -5.0680   -1.6170    0.0000 N   0  0  0  0  0  0  0  0  0  0  0  0
   -4.2610   -1.4450    0.0000 C   0  0  0  0  0  0  0  0  0  0  0  0
   -5.1000    0.5180    0.0000 C   0  0  0  0  0  0  0  0  0  0  0  0
   -5.4030   -2.3710    0.0000 C   0  0  0  0  0  0  0  0  0  0  0  0
   -3.6470   -1.9970    0.0000 C   0  0  0  0  0  0  0  0  0  0  0  0
  1  2  2  0  0  0  0
  1  6  1  0  0  0  0
  2  3  1  0  0  0  0
  2 25  1  0  0  0  0
  3  4  2  0  0  0  0
  4  5  1  0  0  0  0
  4  7  1  0  0  0  0
  5  6  2  0  0  0  0
  5 10  1  0  0  0  0
  7  8  1  0  0  0  0
  7 12  1  0  0  0  0
  7 13  1  6  0  0  0
  8  9  1  0  0  0  0
  8 15  1  1  0  0  0
  9 10  1  0  0  0  0
  9 11  1  1  0  0  0
 11 14  1  0  0  0  0
 11 16  1  0  0  0  0
 12 14  1  0  0  0  0
 16 17  1  6  0  0  0
 16 26  1  0  0  0  0
 17 18  1  0  0  0  0
 17 22  2  0  0  0  0
 18 19  2  0  0  0  0
 19 20  1  0  0  0  0
 20 21  2  0  0  0  0
 20 23  1  0  0  0  0
 21 22  1  0  0  0  0
 22 24  1  0  0  0  0
 25 28  1  0  0  0  0
 26 27  1  0  0  0  0
 28 29  1  0  0  0  0
 29 30  1  0  0  0  0
 29 33  2  0  0  0  0
 30 31  2  0  0  0  0
 30 34  1  0  0  0  0
 31 32  1  0  0  0  0
 32 33  1  0  0  0  0
 32 35  1  0  0  0  0
 33 36  1  0  0  0  0
M  END
$$$$
20220309-structures drawed for LXR-18292-203-better than 18292(68).sdf
  MOE2020           2D

 38 43  0  0  1  0  0  0  0  0999 V2000
   -1.8470    0.2360    0.0000 C   0  0  0  0  0  0  0  0  0  0  0  0
   -1.8470   -0.5900    0.0000 C   0  0  0  0  0  0  0  0  0  0  0  0
   -1.1330   -1.0020    0.0000 C   0  0  0  0  0  0  0  0  0  0  0  0
   -0.4180   -0.5900    0.0000 C   0  0  0  0  0  0  0  0  0  0  0  0
   -0.4180    0.2360    0.0000 C   0  0  0  0  0  0  0  0  0  0  0  0
   -1.1330    0.6480    0.0000 C   0  0  0  0  0  0  0  0  0  0  0  0
    0.2960   -1.0020    0.0000 C   0  0  1  0  0  0  0  0  0  0  0  0
    1.0100   -0.5900    0.0000 C   0  0  1  0  0  0  0  0  0  0  0  0
    1.0100    0.2360    0.0000 C   0  0  1  0  0  0  0  0  0  0  0  0
    0.2960    0.6480    0.0000 C   0  0  0  0  0  0  0  0  0  0  0  0
    1.9140    0.0640    0.0000 N   0  0  0  0  0  0  0  0  0  0  0  0
    1.3790   -1.6320    0.0000 C   0  0  0  0  0  0  0  0  0  0  0  0
   -0.1170   -1.7160    0.0000 C   0  0  0  0  0  0  0  0  0  0  0  0
    2.0740   -1.2260    0.0000 C   0  0  0  0  0  0  0  0  0  0  0  0
    1.7220   -1.0000    0.0000 C   0  0  0  0  0  0  0  0  0  0  0  0
    2.5140    0.6260    0.0000 C   0  0  1  0  0  0  0  0  0  0  0  0
    3.3010    0.3880    0.0000 C   0  0  0  0  0  0  0  0  0  0  0  0
    3.4880   -0.4150    0.0000 C   0  0  0  0  0  0  0  0  0  0  0  0
    4.2780   -0.6540    0.0000 C   0  0  0  0  0  0  0  0  0  0  0  0
    4.8800   -0.0900    0.0000 C   0  0  0  0  0  0  0  0  0  0  0  0
    4.6920    0.7130    0.0000 C   0  0  0  0  0  0  0  0  0  0  0  0
    3.9020    0.9520    0.0000 C   0  0  0  0  0  0  0  0  0  0  0  0
    5.6670   -0.3290    0.0000 F   0  0  0  0  0  0  0  0  0  0  0  0
    3.7150    1.7550    0.0000 Cl  0  0  0  0  0  0  0  0  0  0  0  0
   -2.5600   -1.0010    0.0000 N   0  0  0  0  0  0  0  0  0  0  0  0
    2.3260    1.4290    0.0000 C   0  0  0  0  0  0  0  0  0  0  0  0
    2.9280    1.9940    0.0000 C   0  0  0  0  0  0  0  0  0  0  0  0
   -3.2740   -0.5890    0.0000 C   0  0  0  0  0  0  0  0  0  0  0  0
   -3.9880   -1.0020    0.0000 C   0  0  0  0  0  0  0  0  0  0  0  0
   -4.7420   -0.6660    0.0000 C   0  0  0  0  0  0  0  0  0  0  0  0
   -5.2940   -1.2790    0.0000 C   0  0  0  0  0  0  0  0  0  0  0  0
   -4.8820   -1.9940    0.0000 N   0  0  0  0  0  0  0  0  0  0  0  0
   -4.0740   -1.8220    0.0000 C   0  0  0  0  0  0  0  0  0  0  0  0
   -4.9140    0.1410    0.0000 C   0  0  0  0  0  0  0  0  0  0  0  0
   -4.3610    0.7540    0.0000 N   0  0  0  0  0  0  0  0  0  0  0  0
   -4.7740    1.4680    0.0000 N   0  0  0  0  0  0  0  0  0  0  0  0
   -5.5800    1.2970    0.0000 N   0  0  0  0  0  0  0  0  0  0  0  0
   -5.6670    0.4770    0.0000 N   0  0  0  0  0  0  0  0  0  0  0  0
  1  2  2  0  0  0  0
  1  6  1  0  0  0  0
  2  3  1  0  0  0  0
  2 25  1  0  0  0  0
  3  4  2  0  0  0  0
  4  5  1  0  0  0  0
  4  7  1  0  0  0  0
  5  6  2  0  0  0  0
  5 10  1  0  0  0  0
  7  8  1  0  0  0  0
  7 12  1  0  0  0  0
  7 13  1  6  0  0  0
  8  9  1  0  0  0  0
  8 15  1  1  0  0  0
  9 10  1  0  0  0  0
  9 11  1  1  0  0  0
 11 14  1  0  0  0  0
 11 16  1  0  0  0  0
 12 14  1  0  0  0  0
 16 17  1  6  0  0  0
 16 26  1  0  0  0  0
 17 18  1  0  0  0  0
 17 22  2  0  0  0  0
 18 19  2  0  0  0  0
 19 20  1  0  0  0  0
 20 21  2  0  0  0  0
 20 23  1  0  0  0  0
 21 22  1  0  0  0  0
 22 24  1  0  0  0  0
 25 28  1  0  0  0  0
 26 27  1  0  0  0  0
 28 29  1  0  0  0  0
 29 30  1  0  0  0  0
 29 33  2  0  0  0  0
 30 31  2  0  0  0  0
 30 34  1  0  0  0  0
 31 32  1  0  0  0  0
 32 33  1  0  0  0  0
 34 35  1  0  0  0  0
 34 38  2  0  0  0  0
 35 36  1  0  0  0  0
 36 37  2  0  0  0  0
 37 38  1  0  0  0  0
M  END
$$$$
20220309-structures drawed for LXR-18292-203-better than 18292(68).sdf
  MOE2020           2D

 39 44  0  0  1  0  0  0  0  0999 V2000
   -1.5840    0.2360    0.0000 C   0  0  0  0  0  0  0  0  0  0  0  0
   -1.5840   -0.5900    0.0000 C   0  0  0  0  0  0  0  0  0  0  0  0
   -0.8700   -1.0020    0.0000 C   0  0  0  0  0  0  0  0  0  0  0  0
   -0.1550   -0.5900    0.0000 C   0  0  0  0  0  0  0  0  0  0  0  0
   -0.1550    0.2360    0.0000 C   0  0  0  0  0  0  0  0  0  0  0  0
   -0.8700    0.6480    0.0000 C   0  0  0  0  0  0  0  0  0  0  0  0
    0.5590   -1.0020    0.0000 C   0  0  1  0  0  0  0  0  0  0  0  0
    1.2740   -0.5900    0.0000 C   0  0  1  0  0  0  0  0  0  0  0  0
    1.2740    0.2360    0.0000 C   0  0  1  0  0  0  0  0  0  0  0  0
    0.5590    0.6480    0.0000 C   0  0  0  0  0  0  0  0  0  0  0  0
    2.1770    0.0640    0.0000 N   0  0  0  0  0  0  0  0  0  0  0  0
    1.6430   -1.6320    0.0000 C   0  0  0  0  0  0  0  0  0  0  0  0
    0.1470   -1.7160    0.0000 C   0  0  0  0  0  0  0  0  0  0  0  0
    2.3370   -1.2260    0.0000 C   0  0  0  0  0  0  0  0  0  0  0  0
    1.9860   -1.0000    0.0000 C   0  0  0  0  0  0  0  0  0  0  0  0
    2.7770    0.6260    0.0000 C   0  0  1  0  0  0  0  0  0  0  0  0
    3.5640    0.3880    0.0000 C   0  0  0  0  0  0  0  0  0  0  0  0
    3.7520   -0.4150    0.0000 C   0  0  0  0  0  0  0  0  0  0  0  0
    4.5410   -0.6540    0.0000 C   0  0  0  0  0  0  0  0  0  0  0  0
    5.1430   -0.0900    0.0000 C   0  0  0  0  0  0  0  0  0  0  0  0
    4.9550    0.7130    0.0000 C   0  0  0  0  0  0  0  0  0  0  0  0
    4.1660    0.9520    0.0000 C   0  0  0  0  0  0  0  0  0  0  0  0
    5.9300   -0.3290    0.0000 F   0  0  0  0  0  0  0  0  0  0  0  0
    3.9780    1.7550    0.0000 Cl  0  0  0  0  0  0  0  0  0  0  0  0
   -2.2960   -1.0010    0.0000 N   0  0  0  0  0  0  0  0  0  0  0  0
    2.5900    1.4290    0.0000 C   0  0  0  0  0  0  0  0  0  0  0  0
    3.1910    1.9940    0.0000 C   0  0  0  0  0  0  0  0  0  0  0  0
   -3.0110   -0.5890    0.0000 C   0  0  0  0  0  0  0  0  0  0  0  0
   -3.7250   -1.0020    0.0000 C   0  0  0  0  0  0  0  0  0  0  0  0
   -4.4790   -0.6660    0.0000 C   0  0  0  0  0  0  0  0  0  0  0  0
   -5.0310   -1.2790    0.0000 C   0  0  0  0  0  0  0  0  0  0  0  0
   -4.6180   -1.9940    0.0000 N   0  0  0  0  0  0  0  0  0  0  0  0
   -3.8110   -1.8220    0.0000 C   0  0  0  0  0  0  0  0  0  0  0  0
   -4.6500    0.1410    0.0000 C   0  0  0  0  0  0  0  0  0  0  0  0
   -4.0980    0.7540    0.0000 C   0  0  0  0  0  0  0  0  0  0  0  0
   -4.5110    1.4680    0.0000 N   0  0  0  0  0  0  0  0  0  0  0  0
   -5.3170    1.2970    0.0000 C   0  0  0  0  0  0  0  0  0  0  0  0
   -5.4040    0.4770    0.0000 N   0  0  0  0  0  0  0  0  0  0  0  0
   -5.9300    1.8490    0.0000 O   0  0  0  0  0  0  0  0  0  0  0  0
  1  2  2  0  0  0  0
  1  6  1  0  0  0  0
  2  3  1  0  0  0  0
  2 25  1  0  0  0  0
  3  4  2  0  0  0  0
  4  5  1  0  0  0  0
  4  7  1  0  0  0  0
  5  6  2  0  0  0  0
  5 10  1  0  0  0  0
  7  8  1  0  0  0  0
  7 12  1  0  0  0  0
  7 13  1  6  0  0  0
  8  9  1  0  0  0  0
  8 15  1  1  0  0  0
  9 10  1  0  0  0  0
  9 11  1  1  0  0  0
 11 14  1  0  0  0  0
 11 16  1  0  0  0  0
 12 14  1  0  0  0  0
 16 17  1  6  0  0  0
 16 26  1  0  0  0  0
 17 18  1  0  0  0  0
 17 22  2  0  0  0  0
 18 19  2  0  0  0  0
 19 20  1  0  0  0  0
 20 21  2  0  0  0  0
 20 23  1  0  0  0  0
 21 22  1  0  0  0  0
 22 24  1  0  0  0  0
 25 28  1  0  0  0  0
 26 27  1  0  0  0  0
 28 29  1  0  0  0  0
 29 30  1  0  0  0  0
 29 33  2  0  0  0  0
 30 31  2  0  0  0  0
 30 34  1  0  0  0  0
 31 32  1  0  0  0  0
 32 33  1  0  0  0  0
 34 35  2  0  0  0  0
 34 38  1  0  0  0  0
 35 36  1  0  0  0  0
 36 37  1  0  0  0  0
 37 38  1  0  0  0  0
 37 39  2  0  0  0  0
M  END
$$$$
20220309-structures drawed for LXR-18292-203-better than 18292(68).sdf
  MOE2020           2D

 38 43  0  0  1  0  0  0  0  0999 V2000
   -1.8800    0.2360    0.0000 C   0  0  0  0  0  0  0  0  0  0  0  0
   -1.8800   -0.5900    0.0000 C   0  0  0  0  0  0  0  0  0  0  0  0
   -1.1650   -1.0020    0.0000 C   0  0  0  0  0  0  0  0  0  0  0  0
   -0.4510   -0.5900    0.0000 C   0  0  0  0  0  0  0  0  0  0  0  0
   -0.4510    0.2360    0.0000 C   0  0  0  0  0  0  0  0  0  0  0  0
   -1.1650    0.6480    0.0000 C   0  0  0  0  0  0  0  0  0  0  0  0
    0.2640   -1.0020    0.0000 C   0  0  1  0  0  0  0  0  0  0  0  0
    0.9780   -0.5900    0.0000 C   0  0  1  0  0  0  0  0  0  0  0  0
    0.9780    0.2360    0.0000 C   0  0  1  0  0  0  0  0  0  0  0  0
    0.2640    0.6480    0.0000 C   0  0  0  0  0  0  0  0  0  0  0  0
    1.8820    0.0640    0.0000 N   0  0  0  0  0  0  0  0  0  0  0  0
    1.3470   -1.6320    0.0000 C   0  0  0  0  0  0  0  0  0  0  0  0
   -0.1490   -1.7160    0.0000 C   0  0  0  0  0  0  0  0  0  0  0  0
    2.0420   -1.2260    0.0000 C   0  0  0  0  0  0  0  0  0  0  0  0
    1.6900   -1.0000    0.0000 C   0  0  0  0  0  0  0  0  0  0  0  0
    2.4820    0.6260    0.0000 C   0  0  1  0  0  0  0  0  0  0  0  0
    3.2690    0.3880    0.0000 C   0  0  0  0  0  0  0  0  0  0  0  0
    3.4560   -0.4150    0.0000 C   0  0  0  0  0  0  0  0  0  0  0  0
    4.2460   -0.6540    0.0000 C   0  0  0  0  0  0  0  0  0  0  0  0
    4.8480   -0.0900    0.0000 C   0  0  0  0  0  0  0  0  0  0  0  0
    4.6600    0.7130    0.0000 C   0  0  0  0  0  0  0  0  0  0  0  0
    3.8700    0.9520    0.0000 C   0  0  0  0  0  0  0  0  0  0  0  0
    5.6350   -0.3290    0.0000 F   0  0  0  0  0  0  0  0  0  0  0  0
    3.6830    1.7550    0.0000 Cl  0  0  0  0  0  0  0  0  0  0  0  0
   -2.5920   -1.0010    0.0000 N   0  0  0  0  0  0  0  0  0  0  0  0
    2.2940    1.4290    0.0000 C   0  0  0  0  0  0  0  0  0  0  0  0
    2.8960    1.9940    0.0000 C   0  0  0  0  0  0  0  0  0  0  0  0
   -3.3060   -0.5890    0.0000 C   0  0  0  0  0  0  0  0  0  0  0  0
   -4.0200   -1.0020    0.0000 C   0  0  0  0  0  0  0  0  0  0  0  0
   -4.7740   -0.6660    0.0000 C   0  0  0  0  0  0  0  0  0  0  0  0
   -5.3260   -1.2790    0.0000 C   0  0  0  0  0  0  0  0  0  0  0  0
   -4.9140   -1.9940    0.0000 N   0  0  0  0  0  0  0  0  0  0  0  0
   -4.1060   -1.8220    0.0000 C   0  0  0  0  0  0  0  0  0  0  0  0
   -4.9460    0.1410    0.0000 N   0  0  0  0  0  0  0  0  0  0  0  0
   -4.4980    0.8300    0.0000 C   0  0  0  0  0  0  0  0  0  0  0  0
   -5.1870    1.2780    0.0000 C   0  0  0  0  0  0  0  0  0  0  0  0
   -5.6350    0.5890    0.0000 C   0  0  0  0  0  0  0  0  0  0  0  0
   -3.6930    1.0010    0.0000 O   0  0  0  0  0  0  0  0  0  0  0  0
  1  2  2  0  0  0  0
  1  6  1  0  0  0  0
  2  3  1  0  0  0  0
  2 25  1  0  0  0  0
  3  4  2  0  0  0  0
  4  5  1  0  0  0  0
  4  7  1  0  0  0  0
  5  6  2  0  0  0  0
  5 10  1  0  0  0  0
  7  8  1  0  0  0  0
  7 12  1  0  0  0  0
  7 13  1  6  0  0  0
  8  9  1  0  0  0  0
  8 15  1  1  0  0  0
  9 10  1  0  0  0  0
  9 11  1  1  0  0  0
 11 14  1  0  0  0  0
 11 16  1  0  0  0  0
 12 14  1  0  0  0  0
 16 17  1  6  0  0  0
 16 26  1  0  0  0  0
 17 18  1  0  0  0  0
 17 22  2  0  0  0  0
 18 19  2  0  0  0  0
 19 20  1  0  0  0  0
 20 21  2  0  0  0  0
 20 23  1  0  0  0  0
 21 22  1  0  0  0  0
 22 24  1  0  0  0  0
 25 28  1  0  0  0  0
 26 27  1  0  0  0  0
 28 29  1  0  0  0  0
 29 30  1  0  0  0  0
 29 33  2  0  0  0  0
 30 31  2  0  0  0  0
 30 34  1  0  0  0  0
 31 32  1  0  0  0  0
 32 33  1  0  0  0  0
 34 35  1  0  0  0  0
 34 37  1  0  0  0  0
 35 36  1  0  0  0  0
 35 38  2  0  0  0  0
 36 37  1  0  0  0  0
M  END
$$$$
20220309-structures drawed for LXR-18292-203-better than 18292(68).sdf
  MOE2020           2D

 40 45  0  0  1  0  0  0  0  0999 V2000
   -1.7460    0.2360    0.0000 C   0  0  0  0  0  0  0  0  0  0  0  0
   -1.7460   -0.5900    0.0000 C   0  0  0  0  0  0  0  0  0  0  0  0
   -1.0320   -1.0020    0.0000 C   0  0  0  0  0  0  0  0  0  0  0  0
   -0.3170   -0.5900    0.0000 C   0  0  0  0  0  0  0  0  0  0  0  0
   -0.3170    0.2360    0.0000 C   0  0  0  0  0  0  0  0  0  0  0  0
   -1.0320    0.6480    0.0000 C   0  0  0  0  0  0  0  0  0  0  0  0
    0.3970   -1.0020    0.0000 C   0  0  1  0  0  0  0  0  0  0  0  0
    1.1120   -0.5900    0.0000 C   0  0  1  0  0  0  0  0  0  0  0  0
    1.1120    0.2360    0.0000 C   0  0  1  0  0  0  0  0  0  0  0  0
    0.3970    0.6480    0.0000 C   0  0  0  0  0  0  0  0  0  0  0  0
    2.0150    0.0640    0.0000 N   0  0  0  0  0  0  0  0  0  0  0  0
    1.4800   -1.6320    0.0000 C   0  0  0  0  0  0  0  0  0  0  0  0
   -0.0160   -1.7160    0.0000 C   0  0  0  0  0  0  0  0  0  0  0  0
    2.1750   -1.2260    0.0000 C   0  0  0  0  0  0  0  0  0  0  0  0
    1.8240   -1.0000    0.0000 C   0  0  0  0  0  0  0  0  0  0  0  0
    2.6150    0.6260    0.0000 C   0  0  1  0  0  0  0  0  0  0  0  0
    3.4020    0.3880    0.0000 C   0  0  0  0  0  0  0  0  0  0  0  0
    3.5890   -0.4150    0.0000 C   0  0  0  0  0  0  0  0  0  0  0  0
    4.3790   -0.6540    0.0000 C   0  0  0  0  0  0  0  0  0  0  0  0
    4.9810   -0.0900    0.0000 C   0  0  0  0  0  0  0  0  0  0  0  0
    4.7930    0.7130    0.0000 C   0  0  0  0  0  0  0  0  0  0  0  0
    4.0040    0.9520    0.0000 C   0  0  0  0  0  0  0  0  0  0  0  0
    5.7680   -0.3290    0.0000 F   0  0  0  0  0  0  0  0  0  0  0  0
    3.8160    1.7550    0.0000 Cl  0  0  0  0  0  0  0  0  0  0  0  0
   -2.4580   -1.0010    0.0000 N   0  0  0  0  0  0  0  0  0  0  0  0
    2.4270    1.4290    0.0000 C   0  0  0  0  0  0  0  0  0  0  0  0
    3.0290    1.9940    0.0000 C   0  0  0  0  0  0  0  0  0  0  0  0
   -3.1730   -0.5890    0.0000 C   0  0  0  0  0  0  0  0  0  0  0  0
   -3.8870   -1.0020    0.0000 C   0  0  0  0  0  0  0  0  0  0  0  0
   -4.6410   -0.6660    0.0000 C   0  0  0  0  0  0  0  0  0  0  0  0
   -5.1930   -1.2790    0.0000 C   0  0  0  0  0  0  0  0  0  0  0  0
   -4.7800   -1.9940    0.0000 N   0  0  0  0  0  0  0  0  0  0  0  0
   -3.9730   -1.8220    0.0000 C   0  0  0  0  0  0  0  0  0  0  0  0
   -4.8120    0.1410    0.0000 N   0  0  0  0  0  0  0  0  0  0  0  0
   -4.1990    0.6930    0.0000 C   0  0  0  0  0  0  0  0  0  0  0  0
   -4.3700    1.5000    0.0000 C   0  0  0  0  0  0  0  0  0  0  0  0
   -5.1550    1.7550    0.0000 C   0  0  0  0  0  0  0  0  0  0  0  0
   -5.7680    1.2030    0.0000 C   0  0  0  0  0  0  0  0  0  0  0  0
   -5.5970    0.3960    0.0000 C   0  0  0  0  0  0  0  0  0  0  0  0
   -3.4150    0.4380    0.0000 O   0  0  0  0  0  0  0  0  0  0  0  0
  1  2  2  0  0  0  0
  1  6  1  0  0  0  0
  2  3  1  0  0  0  0
  2 25  1  0  0  0  0
  3  4  2  0  0  0  0
  4  5  1  0  0  0  0
  4  7  1  0  0  0  0
  5  6  2  0  0  0  0
  5 10  1  0  0  0  0
  7  8  1  0  0  0  0
  7 12  1  0  0  0  0
  7 13  1  6  0  0  0
  8  9  1  0  0  0  0
  8 15  1  1  0  0  0
  9 10  1  0  0  0  0
  9 11  1  1  0  0  0
 11 14  1  0  0  0  0
 11 16  1  0  0  0  0
 12 14  1  0  0  0  0
 16 17  1  6  0  0  0
 16 26  1  0  0  0  0
 17 18  1  0  0  0  0
 17 22  2  0  0  0  0
 18 19  2  0  0  0  0
 19 20  1  0  0  0  0
 20 21  2  0  0  0  0
 20 23  1  0  0  0  0
 21 22  1  0  0  0  0
 22 24  1  0  0  0  0
 25 28  1  0  0  0  0
 26 27  1  0  0  0  0
 28 29  1  0  0  0  0
 29 30  1  0  0  0  0
 29 33  2  0  0  0  0
 30 31  2  0  0  0  0
 30 34  1  0  0  0  0
 31 32  1  0  0  0  0
 32 33  1  0  0  0  0
 34 35  1  0  0  0  0
 34 39  1  0  0  0  0
 35 36  1  0  0  0  0
 35 40  2  0  0  0  0
 36 37  1  0  0  0  0
 37 38  1  0  0  0  0
 38 39  1  0  0  0  0
M  END
$$$$
20220309-structures drawed for LXR-18292-203-better than 18292(68).sdf
  MOE2020           2D

 38 42  0  0  1  0  0  0  0  0999 V2000
   -1.8320    0.2360    0.0000 C   0  0  0  0  0  0  0  0  0  0  0  0
   -1.8320   -0.5900    0.0000 C   0  0  0  0  0  0  0  0  0  0  0  0
   -1.1170   -1.0020    0.0000 C   0  0  0  0  0  0  0  0  0  0  0  0
   -0.4030   -0.5900    0.0000 C   0  0  0  0  0  0  0  0  0  0  0  0
   -0.4030    0.2360    0.0000 C   0  0  0  0  0  0  0  0  0  0  0  0
   -1.1170    0.6480    0.0000 C   0  0  0  0  0  0  0  0  0  0  0  0
    0.3120   -1.0020    0.0000 C   0  0  1  0  0  0  0  0  0  0  0  0
    1.0260   -0.5900    0.0000 C   0  0  1  0  0  0  0  0  0  0  0  0
    1.0260    0.2360    0.0000 C   0  0  1  0  0  0  0  0  0  0  0  0
    0.3120    0.6480    0.0000 C   0  0  0  0  0  0  0  0  0  0  0  0
    1.9300    0.0640    0.0000 N   0  0  0  0  0  0  0  0  0  0  0  0
    1.3950   -1.6320    0.0000 C   0  0  0  0  0  0  0  0  0  0  0  0
   -0.1010   -1.7160    0.0000 C   0  0  0  0  0  0  0  0  0  0  0  0
    2.0890   -1.2260    0.0000 C   0  0  0  0  0  0  0  0  0  0  0  0
    1.7380   -1.0000    0.0000 C   0  0  0  0  0  0  0  0  0  0  0  0
    2.5290    0.6260    0.0000 C   0  0  1  0  0  0  0  0  0  0  0  0
    3.3170    0.3880    0.0000 C   0  0  0  0  0  0  0  0  0  0  0  0
    3.5040   -0.4150    0.0000 C   0  0  0  0  0  0  0  0  0  0  0  0
    4.2930   -0.6540    0.0000 C   0  0  0  0  0  0  0  0  0  0  0  0
    4.8960   -0.0900    0.0000 C   0  0  0  0  0  0  0  0  0  0  0  0
    4.7080    0.7130    0.0000 C   0  0  0  0  0  0  0  0  0  0  0  0
    3.9180    0.9520    0.0000 C   0  0  0  0  0  0  0  0  0  0  0  0
    5.6830   -0.3290    0.0000 F   0  0  0  0  0  0  0  0  0  0  0  0
    3.7310    1.7550    0.0000 Cl  0  0  0  0  0  0  0  0  0  0  0  0
   -2.5440   -1.0010    0.0000 N   0  0  0  0  0  0  0  0  0  0  0  0
    2.3420    1.4290    0.0000 C   0  0  0  0  0  0  0  0  0  0  0  0
    2.9440    1.9940    0.0000 C   0  0  0  0  0  0  0  0  0  0  0  0
   -3.2580   -0.5890    0.0000 C   0  0  0  0  0  0  0  0  0  0  0  0
   -3.9730   -1.0020    0.0000 C   0  0  0  0  0  0  0  0  0  0  0  0
   -4.7270   -0.6660    0.0000 C   0  0  0  0  0  0  0  0  0  0  0  0
   -5.2780   -1.2790    0.0000 C   0  0  0  0  0  0  0  0  0  0  0  0
   -4.8660   -1.9940    0.0000 N   0  0  0  0  0  0  0  0  0  0  0  0
   -4.0590   -1.8220    0.0000 C   0  0  0  0  0  0  0  0  0  0  0  0
   -4.8980    0.1410    0.0000 C   0  0  0  0  0  0  0  0  0  0  0  0
   -4.2850    0.6930    0.0000 O   0  0  0  0  0  0  0  0  0  0  0  0
   -5.6830    0.3960    0.0000 O   0  0  0  0  0  0  0  0  0  0  0  0
   -4.2850    1.5180    0.0000 C   0  0  0  0  0  0  0  0  0  0  0  0
   -3.5700    1.9310    0.0000 C   0  0  0  0  0  0  0  0  0  0  0  0
  1  2  2  0  0  0  0
  1  6  1  0  0  0  0
  2  3  1  0  0  0  0
  2 25  1  0  0  0  0
  3  4  2  0  0  0  0
  4  5  1  0  0  0  0
  4  7  1  0  0  0  0
  5  6  2  0  0  0  0
  5 10  1  0  0  0  0
  7  8  1  0  0  0  0
  7 12  1  0  0  0  0
  7 13  1  6  0  0  0
  8  9  1  0  0  0  0
  8 15  1  1  0  0  0
  9 10  1  0  0  0  0
  9 11  1  1  0  0  0
 11 14  1  0  0  0  0
 11 16  1  0  0  0  0
 12 14  1  0  0  0  0
 16 17  1  6  0  0  0
 16 26  1  0  0  0  0
 17 18  1  0  0  0  0
 17 22  2  0  0  0  0
 18 19  2  0  0  0  0
 19 20  1  0  0  0  0
 20 21  2  0  0  0  0
 20 23  1  0  0  0  0
 21 22  1  0  0  0  0
 22 24  1  0  0  0  0
 25 28  1  0  0  0  0
 26 27  1  0  0  0  0
 28 29  1  0  0  0  0
 29 30  1  0  0  0  0
 29 33  2  0  0  0  0
 30 31  2  0  0  0  0
 30 34  1  0  0  0  0
 31 32  1  0  0  0  0
 32 33  1  0  0  0  0
 34 35  1  0  0  0  0
 34 36  2  0  0  0  0
 35 37  1  0  0  0  0
 37 38  1  0  0  0  0
M  END
$$$$
20220309-structures drawed for LXR-18292-203-better than 18292(68).sdf
  MOE2020           2D

 39 43  0  0  1  0  0  0  0  0999 V2000
   -1.6240    0.2360    0.0000 C   0  0  0  0  0  0  0  0  0  0  0  0
   -1.6240   -0.5900    0.0000 C   0  0  0  0  0  0  0  0  0  0  0  0
   -0.9090   -1.0020    0.0000 C   0  0  0  0  0  0  0  0  0  0  0  0
   -0.1950   -0.5900    0.0000 C   0  0  0  0  0  0  0  0  0  0  0  0
   -0.1950    0.2360    0.0000 C   0  0  0  0  0  0  0  0  0  0  0  0
   -0.9090    0.6480    0.0000 C   0  0  0  0  0  0  0  0  0  0  0  0
    0.5200   -1.0020    0.0000 C   0  0  1  0  0  0  0  0  0  0  0  0
    1.2340   -0.5900    0.0000 C   0  0  1  0  0  0  0  0  0  0  0  0
    1.2340    0.2360    0.0000 C   0  0  1  0  0  0  0  0  0  0  0  0
    0.5200    0.6480    0.0000 C   0  0  0  0  0  0  0  0  0  0  0  0
    2.1380    0.0640    0.0000 N   0  0  0  0  0  0  0  0  0  0  0  0
    1.6030   -1.6320    0.0000 C   0  0  0  0  0  0  0  0  0  0  0  0
    0.1070   -1.7160    0.0000 C   0  0  0  0  0  0  0  0  0  0  0  0
    2.2970   -1.2260    0.0000 C   0  0  0  0  0  0  0  0  0  0  0  0
    1.9460   -1.0000    0.0000 C   0  0  0  0  0  0  0  0  0  0  0  0
    2.7370    0.6260    0.0000 C   0  0  1  0  0  0  0  0  0  0  0  0
    3.5250    0.3880    0.0000 C   0  0  0  0  0  0  0  0  0  0  0  0
    3.7120   -0.4150    0.0000 C   0  0  0  0  0  0  0  0  0  0  0  0
    4.5010   -0.6540    0.0000 C   0  0  0  0  0  0  0  0  0  0  0  0
    5.1040   -0.0900    0.0000 C   0  0  0  0  0  0  0  0  0  0  0  0
    4.9160    0.7130    0.0000 C   0  0  0  0  0  0  0  0  0  0  0  0
    4.1260    0.9520    0.0000 C   0  0  0  0  0  0  0  0  0  0  0  0
    5.8910   -0.3290    0.0000 F   0  0  0  0  0  0  0  0  0  0  0  0
    3.9390    1.7550    0.0000 Cl  0  0  0  0  0  0  0  0  0  0  0  0
   -2.3360   -1.0010    0.0000 N   0  0  0  0  0  0  0  0  0  0  0  0
    2.5500    1.4290    0.0000 C   0  0  0  0  0  0  0  0  0  0  0  0
    3.1520    1.9940    0.0000 C   0  0  0  0  0  0  0  0  0  0  0  0
   -3.0500   -0.5890    0.0000 C   0  0  0  0  0  0  0  0  0  0  0  0
   -3.7650   -1.0020    0.0000 C   0  0  0  0  0  0  0  0  0  0  0  0
   -4.5190   -0.6660    0.0000 C   0  0  0  0  0  0  0  0  0  0  0  0
   -5.0700   -1.2790    0.0000 N   0  0  0  0  0  0  0  0  0  0  0  0
   -4.6580   -1.9940    0.0000 C   0  0  0  0  0  0  0  0  0  0  0  0
   -3.8510   -1.8220    0.0000 C   0  0  0  0  0  0  0  0  0  0  0  0
   -4.6900    0.1410    0.0000 C   0  0  0  0  0  0  0  0  0  0  0  0
   -4.0770    0.6930    0.0000 O   0  0  0  0  0  0  0  0  0  0  0  0
   -5.4750    0.3960    0.0000 O   0  0  0  0  0  0  0  0  0  0  0  0
   -4.0770    1.5180    0.0000 C   0  0  0  0  0  0  0  0  0  0  0  0
   -3.3620    1.9310    0.0000 C   0  0  0  0  0  0  0  0  0  0  0  0
   -5.8910   -1.1930    0.0000 C   0  0  0  0  0  0  0  0  0  0  0  0
  1  2  2  0  0  0  0
  1  6  1  0  0  0  0
  2  3  1  0  0  0  0
  2 25  1  0  0  0  0
  3  4  2  0  0  0  0
  4  5  1  0  0  0  0
  4  7  1  0  0  0  0
  5  6  2  0  0  0  0
  5 10  1  0  0  0  0
  7  8  1  0  0  0  0
  7 12  1  0  0  0  0
  7 13  1  6  0  0  0
  8  9  1  0  0  0  0
  8 15  1  1  0  0  0
  9 10  1  0  0  0  0
  9 11  1  1  0  0  0
 11 14  1  0  0  0  0
 11 16  1  0  0  0  0
 12 14  1  0  0  0  0
 16 17  1  6  0  0  0
 16 26  1  0  0  0  0
 17 18  1  0  0  0  0
 17 22  2  0  0  0  0
 18 19  2  0  0  0  0
 19 20  1  0  0  0  0
 20 21  2  0  0  0  0
 20 23  1  0  0  0  0
 21 22  1  0  0  0  0
 22 24  1  0  0  0  0
 25 28  1  0  0  0  0
 26 27  1  0  0  0  0
 28 29  1  0  0  0  0
 29 30  2  0  0  0  0
 29 33  1  0  0  0  0
 30 31  1  0  0  0  0
 30 34  1  0  0  0  0
 31 32  1  0  0  0  0
 31 39  1  0  0  0  0
 32 33  2  0  0  0  0
 34 35  1  0  0  0  0
 34 36  2  0  0  0  0
 35 37  1  0  0  0  0
 37 38  1  0  0  0  0
M  END
$$$$
20220309-structures drawed for LXR-18292-203-better than 18292(68).sdf
  MOE2020           2D

 40 44  0  0  1  0  0  0  0  0999 V2000
   -1.6240    0.4250    0.0000 C   0  0  0  0  0  0  0  0  0  0  0  0
   -1.6240   -0.4000    0.0000 C   0  0  0  0  0  0  0  0  0  0  0  0
   -0.9090   -0.8120    0.0000 C   0  0  0  0  0  0  0  0  0  0  0  0
   -0.1950   -0.4000    0.0000 C   0  0  0  0  0  0  0  0  0  0  0  0
   -0.1950    0.4250    0.0000 C   0  0  0  0  0  0  0  0  0  0  0  0
   -0.9090    0.8380    0.0000 C   0  0  0  0  0  0  0  0  0  0  0  0
    0.5200   -0.8120    0.0000 C   0  0  1  0  0  0  0  0  0  0  0  0
    1.2340   -0.4000    0.0000 C   0  0  1  0  0  0  0  0  0  0  0  0
    1.2340    0.4250    0.0000 C   0  0  1  0  0  0  0  0  0  0  0  0
    0.5200    0.8380    0.0000 C   0  0  0  0  0  0  0  0  0  0  0  0
    2.1380    0.2540    0.0000 N   0  0  0  0  0  0  0  0  0  0  0  0
    1.6030   -1.4420    0.0000 C   0  0  0  0  0  0  0  0  0  0  0  0
    0.1070   -1.5260    0.0000 C   0  0  0  0  0  0  0  0  0  0  0  0
    2.2970   -1.0360    0.0000 C   0  0  0  0  0  0  0  0  0  0  0  0
    1.9460   -0.8100    0.0000 C   0  0  0  0  0  0  0  0  0  0  0  0
    2.7370    0.8160    0.0000 C   0  0  1  0  0  0  0  0  0  0  0  0
    3.5250    0.5780    0.0000 C   0  0  0  0  0  0  0  0  0  0  0  0
    3.7120   -0.2250    0.0000 C   0  0  0  0  0  0  0  0  0  0  0  0
    4.5010   -0.4640    0.0000 C   0  0  0  0  0  0  0  0  0  0  0  0
    5.1040    0.0990    0.0000 C   0  0  0  0  0  0  0  0  0  0  0  0
    4.9160    0.9030    0.0000 C   0  0  0  0  0  0  0  0  0  0  0  0
    4.1260    1.1420    0.0000 C   0  0  0  0  0  0  0  0  0  0  0  0
    5.8910   -0.1390    0.0000 F   0  0  0  0  0  0  0  0  0  0  0  0
    3.9390    1.9450    0.0000 Cl  0  0  0  0  0  0  0  0  0  0  0  0
   -2.3360   -0.8110    0.0000 N   0  0  0  0  0  0  0  0  0  0  0  0
    2.5500    1.6190    0.0000 C   0  0  0  0  0  0  0  0  0  0  0  0
    3.1520    2.1840    0.0000 C   0  0  0  0  0  0  0  0  0  0  0  0
   -3.0500   -0.3990    0.0000 C   0  0  0  0  0  0  0  0  0  0  0  0
   -3.7650   -0.8120    0.0000 C   0  0  0  0  0  0  0  0  0  0  0  0
   -4.5190   -0.4760    0.0000 C   0  0  0  0  0  0  0  0  0  0  0  0
   -5.0700   -1.0890    0.0000 N   0  0  0  0  0  0  0  0  0  0  0  0
   -4.6580   -1.8040    0.0000 C   0  0  0  0  0  0  0  0  0  0  0  0
   -3.8510   -1.6320    0.0000 C   0  0  0  0  0  0  0  0  0  0  0  0
   -4.6900    0.3310    0.0000 C   0  0  0  0  0  0  0  0  0  0  0  0
   -4.0770    0.8830    0.0000 O   0  0  0  0  0  0  0  0  0  0  0  0
   -5.4750    0.5860    0.0000 O   0  0  0  0  0  0  0  0  0  0  0  0
   -4.0770    1.7080    0.0000 C   0  0  0  0  0  0  0  0  0  0  0  0
   -3.3620    2.1210    0.0000 C   0  0  0  0  0  0  0  0  0  0  0  0
   -5.8910   -1.0040    0.0000 C   0  0  0  0  0  0  0  0  0  0  0  0
   -3.2370   -2.1840    0.0000 F   0  0  0  0  0  0  0  0  0  0  0  0
  1  2  2  0  0  0  0
  1  6  1  0  0  0  0
  2  3  1  0  0  0  0
  2 25  1  0  0  0  0
  3  4  2  0  0  0  0
  4  5  1  0  0  0  0
  4  7  1  0  0  0  0
  5  6  2  0  0  0  0
  5 10  1  0  0  0  0
  7  8  1  0  0  0  0
  7 12  1  0  0  0  0
  7 13  1  6  0  0  0
  8  9  1  0  0  0  0
  8 15  1  1  0  0  0
  9 10  1  0  0  0  0
  9 11  1  1  0  0  0
 11 14  1  0  0  0  0
 11 16  1  0  0  0  0
 12 14  1  0  0  0  0
 16 17  1  6  0  0  0
 16 26  1  0  0  0  0
 17 18  1  0  0  0  0
 17 22  2  0  0  0  0
 18 19  2  0  0  0  0
 19 20  1  0  0  0  0
 20 21  2  0  0  0  0
 20 23  1  0  0  0  0
 21 22  1  0  0  0  0
 22 24  1  0  0  0  0
 25 28  1  0  0  0  0
 26 27  1  0  0  0  0
 28 29  1  0  0  0  0
 29 30  2  0  0  0  0
 29 33  1  0  0  0  0
 30 31  1  0  0  0  0
 30 34  1  0  0  0  0
 31 32  1  0  0  0  0
 31 39  1  0  0  0  0
 32 33  2  0  0  0  0
 33 40  1  0  0  0  0
 34 35  1  0  0  0  0
 34 36  2  0  0  0  0
 35 37  1  0  0  0  0
 37 38  1  0  0  0  0
M  END
$$$$
20220309-structures drawed for LXR-18292-203-better than 18292(68).sdf
  MOE2020           2D

 38 43  0  0  1  0  0  0  0  0999 V2000
   -1.8470    0.2360    0.0000 C   0  0  0  0  0  0  0  0  0  0  0  0
   -1.8470   -0.5900    0.0000 C   0  0  0  0  0  0  0  0  0  0  0  0
   -1.1330   -1.0020    0.0000 C   0  0  0  0  0  0  0  0  0  0  0  0
   -0.4180   -0.5900    0.0000 C   0  0  0  0  0  0  0  0  0  0  0  0
   -0.4180    0.2360    0.0000 C   0  0  0  0  0  0  0  0  0  0  0  0
   -1.1330    0.6480    0.0000 C   0  0  0  0  0  0  0  0  0  0  0  0
    0.2960   -1.0020    0.0000 C   0  0  1  0  0  0  0  0  0  0  0  0
    1.0100   -0.5900    0.0000 C   0  0  1  0  0  0  0  0  0  0  0  0
    1.0100    0.2360    0.0000 C   0  0  1  0  0  0  0  0  0  0  0  0
    0.2960    0.6480    0.0000 C   0  0  0  0  0  0  0  0  0  0  0  0
    1.9140    0.0640    0.0000 N   0  0  0  0  0  0  0  0  0  0  0  0
    1.3790   -1.6320    0.0000 C   0  0  0  0  0  0  0  0  0  0  0  0
   -0.1170   -1.7160    0.0000 C   0  0  0  0  0  0  0  0  0  0  0  0
    2.0740   -1.2260    0.0000 C   0  0  0  0  0  0  0  0  0  0  0  0
    1.7220   -1.0000    0.0000 C   0  0  0  0  0  0  0  0  0  0  0  0
    2.5140    0.6260    0.0000 C   0  0  1  0  0  0  0  0  0  0  0  0
    3.3010    0.3880    0.0000 C   0  0  0  0  0  0  0  0  0  0  0  0
    3.4880   -0.4150    0.0000 C   0  0  0  0  0  0  0  0  0  0  0  0
    4.2780   -0.6540    0.0000 C   0  0  0  0  0  0  0  0  0  0  0  0
    4.8800   -0.0900    0.0000 C   0  0  0  0  0  0  0  0  0  0  0  0
    4.6920    0.7130    0.0000 C   0  0  0  0  0  0  0  0  0  0  0  0
    3.9020    0.9520    0.0000 C   0  0  0  0  0  0  0  0  0  0  0  0
    5.6670   -0.3290    0.0000 F   0  0  0  0  0  0  0  0  0  0  0  0
    3.7150    1.7550    0.0000 Cl  0  0  0  0  0  0  0  0  0  0  0  0
   -2.5600   -1.0010    0.0000 N   0  0  0  0  0  0  0  0  0  0  0  0
    2.3260    1.4290    0.0000 C   0  0  0  0  0  0  0  0  0  0  0  0
    2.9280    1.9940    0.0000 C   0  0  0  0  0  0  0  0  0  0  0  0
   -3.2740   -0.5890    0.0000 C   0  0  0  0  0  0  0  0  0  0  0  0
   -3.9880   -1.0020    0.0000 C   0  0  0  0  0  0  0  0  0  0  0  0
   -4.7420   -0.6660    0.0000 C   0  0  0  0  0  0  0  0  0  0  0  0
   -5.2940   -1.2790    0.0000 C   0  0  0  0  0  0  0  0  0  0  0  0
   -4.8820   -1.9940    0.0000 N   0  0  0  0  0  0  0  0  0  0  0  0
   -4.0740   -1.8220    0.0000 C   0  0  0  0  0  0  0  0  0  0  0  0
   -4.9140    0.1410    0.0000 C   0  0  0  0  0  0  0  0  0  0  0  0
   -4.3610    0.7540    0.0000 C   0  0  0  0  0  0  0  0  0  0  0  0
   -4.7740    1.4680    0.0000 N   0  0  0  0  0  0  0  0  0  0  0  0
   -5.5800    1.2970    0.0000 C   0  0  0  0  0  0  0  0  0  0  0  0
   -5.6670    0.4770    0.0000 N   0  0  0  0  0  0  0  0  0  0  0  0
  1  2  2  0  0  0  0
  1  6  1  0  0  0  0
  2  3  1  0  0  0  0
  2 25  1  0  0  0  0
  3  4  2  0  0  0  0
  4  5  1  0  0  0  0
  4  7  1  0  0  0  0
  5  6  2  0  0  0  0
  5 10  1  0  0  0  0
  7  8  1  0  0  0  0
  7 12  1  0  0  0  0
  7 13  1  6  0  0  0
  8  9  1  0  0  0  0
  8 15  1  1  0  0  0
  9 10  1  0  0  0  0
  9 11  1  1  0  0  0
 11 14  1  0  0  0  0
 11 16  1  0  0  0  0
 12 14  1  0  0  0  0
 16 17  1  6  0  0  0
 16 26  1  0  0  0  0
 17 18  1  0  0  0  0
 17 22  2  0  0  0  0
 18 19  2  0  0  0  0
 19 20  1  0  0  0  0
 20 21  2  0  0  0  0
 20 23  1  0  0  0  0
 21 22  1  0  0  0  0
 22 24  1  0  0  0  0
 25 28  1  0  0  0  0
 26 27  1  0  0  0  0
 28 29  1  0  0  0  0
 29 30  1  0  0  0  0
 29 33  2  0  0  0  0
 30 31  2  0  0  0  0
 30 34  1  0  0  0  0
 31 32  1  0  0  0  0
 32 33  1  0  0  0  0
 34 35  2  0  0  0  0
 34 38  1  0  0  0  0
 35 36  1  0  0  0  0
 36 37  1  0  0  0  0
 37 38  2  0  0  0  0
M  END
$$$$
20220309-structures drawed for LXR-18292-203-better than 18292(68).sdf
  MOE2020           2D

 46 50  0  0  1  0  0  0  0  0999 V2000
   -1.8320   -2.2080    0.0000 C   0  0  0  0  0  0  0  0  0  0  0  0
   -1.8320   -3.0330    0.0000 C   0  0  0  0  0  0  0  0  0  0  0  0
   -1.1170   -3.4460    0.0000 C   0  0  0  0  0  0  0  0  0  0  0  0
   -0.4030   -3.0330    0.0000 C   0  0  0  0  0  0  0  0  0  0  0  0
   -0.4030   -2.2080    0.0000 C   0  0  0  0  0  0  0  0  0  0  0  0
   -1.1170   -1.7960    0.0000 C   0  0  0  0  0  0  0  0  0  0  0  0
    0.3120   -3.4460    0.0000 C   0  0  1  0  0  0  0  0  0  0  0  0
    1.0260   -3.0330    0.0000 C   0  0  1  0  0  0  0  0  0  0  0  0
    1.0260   -2.2080    0.0000 C   0  0  1  0  0  0  0  0  0  0  0  0
    0.3120   -1.7960    0.0000 C   0  0  0  0  0  0  0  0  0  0  0  0
    1.9300   -2.3790    0.0000 N   0  0  0  0  0  0  0  0  0  0  0  0
    1.3950   -4.0760    0.0000 C   0  0  0  0  0  0  0  0  0  0  0  0
   -0.1010   -4.1600    0.0000 C   0  0  0  0  0  0  0  0  0  0  0  0
    2.0890   -3.6690    0.0000 C   0  0  0  0  0  0  0  0  0  0  0  0
    1.7380   -3.4440    0.0000 C   0  0  0  0  0  0  0  0  0  0  0  0
    2.5290   -1.8170    0.0000 C   0  0  1  0  0  0  0  0  0  0  0  0
    3.3170   -2.0560    0.0000 C   0  0  0  0  0  0  0  0  0  0  0  0
    3.5040   -2.8590    0.0000 C   0  0  0  0  0  0  0  0  0  0  0  0
    4.2930   -3.0980    0.0000 C   0  0  0  0  0  0  0  0  0  0  0  0
    4.8960   -2.5340    0.0000 C   0  0  0  0  0  0  0  0  0  0  0  0
    4.7080   -1.7300    0.0000 C   0  0  0  0  0  0  0  0  0  0  0  0
    3.9180   -1.4910    0.0000 C   0  0  0  0  0  0  0  0  0  0  0  0
    5.6830   -2.7720    0.0000 F   0  0  0  0  0  0  0  0  0  0  0  0
    3.7310   -0.6880    0.0000 Cl  0  0  0  0  0  0  0  0  0  0  0  0
   -2.5440   -3.4440    0.0000 N   0  0  0  0  0  0  0  0  0  0  0  0
    2.3420   -1.0140    0.0000 C   0  0  0  0  0  0  0  0  0  0  0  0
    2.9440   -0.4500    0.0000 C   0  0  0  0  0  0  0  0  0  0  0  0
   -3.2580   -3.0320    0.0000 C   0  0  0  0  0  0  0  0  0  0  0  0
   -3.9730   -3.4450    0.0000 C   0  0  0  0  0  0  0  0  0  0  0  0
   -4.7270   -3.1090    0.0000 C   0  0  0  0  0  0  0  0  0  0  0  0
   -5.2780   -3.7230    0.0000 C   0  0  0  0  0  0  0  0  0  0  0  0
   -4.8660   -4.4370    0.0000 N   0  0  0  0  0  0  0  0  0  0  0  0
   -4.0590   -4.2650    0.0000 C   0  0  0  0  0  0  0  0  0  0  0  0
   -4.8980   -2.3030    0.0000 C   0  0  0  0  0  0  0  0  0  0  0  0
   -5.6830   -2.0480    0.0000 O   0  0  0  0  0  0  0  0  0  0  0  0
   -4.2850   -1.7500    0.0000 N   0  0  0  0  0  0  0  0  0  0  0  0
   -4.2850   -0.9250    0.0000 C   0  0  0  0  0  0  0  0  0  0  0  0
   -3.5700   -0.5130    0.0000 C   0  0  0  0  0  0  0  0  0  0  0  0
   -3.5700    0.3120    0.0000 O   0  0  0  0  0  0  0  0  0  0  0  0
   -2.8560    0.7250    0.0000 C   0  0  0  0  0  0  0  0  0  0  0  0
   -2.8560    1.5500    0.0000 C   0  0  0  0  0  0  0  0  0  0  0  0
   -2.1420    1.9620    0.0000 O   0  0  0  0  0  0  0  0  0  0  0  0
   -2.1420    2.7870    0.0000 C   0  0  0  0  0  0  0  0  0  0  0  0
   -1.4270    3.2000    0.0000 C   0  0  0  0  0  0  0  0  0  0  0  0
   -1.4270    4.0250    0.0000 O   0  0  0  0  0  0  0  0  0  0  0  0
   -0.7130    4.4370    0.0000 C   0  0  0  0  0  0  0  0  0  0  0  0
  1  2  2  0  0  0  0
  1  6  1  0  0  0  0
  2  3  1  0  0  0  0
  2 25  1  0  0  0  0
  3  4  2  0  0  0  0
  4  5  1  0  0  0  0
  4  7  1  0  0  0  0
  5  6  2  0  0  0  0
  5 10  1  0  0  0  0
  7  8  1  0  0  0  0
  7 12  1  0  0  0  0
  7 13  1  6  0  0  0
  8  9  1  0  0  0  0
  8 15  1  1  0  0  0
  9 10  1  0  0  0  0
  9 11  1  1  0  0  0
 11 14  1  0  0  0  0
 11 16  1  0  0  0  0
 12 14  1  0  0  0  0
 16 17  1  6  0  0  0
 16 26  1  0  0  0  0
 17 18  1  0  0  0  0
 17 22  2  0  0  0  0
 18 19  2  0  0  0  0
 19 20  1  0  0  0  0
 20 21  2  0  0  0  0
 20 23  1  0  0  0  0
 21 22  1  0  0  0  0
 22 24  1  0  0  0  0
 25 28  1  0  0  0  0
 26 27  1  0  0  0  0
 28 29  1  0  0  0  0
 29 30  1  0  0  0  0
 29 33  2  0  0  0  0
 30 31  2  0  0  0  0
 30 34  1  0  0  0  0
 31 32  1  0  0  0  0
 32 33  1  0  0  0  0
 34 35  2  0  0  0  0
 34 36  1  0  0  0  0
 36 37  1  0  0  0  0
 37 38  1  0  0  0  0
 38 39  1  0  0  0  0
 39 40  1  0  0  0  0
 40 41  1  0  0  0  0
 41 42  1  0  0  0  0
 42 43  1  0  0  0  0
 43 44  1  0  0  0  0
 44 45  1  0  0  0  0
 45 46  1  0  0  0  0
M  END
$$$$
20220309-structures drawed for LXR-18292-203-better than 18292(68).sdf
  MOE2020           2D

 46 50  0  0  1  0  0  0  0  0999 V2000
   -1.8320   -2.2080    0.0000 C   0  0  0  0  0  0  0  0  0  0  0  0
   -1.8320   -3.0330    0.0000 C   0  0  0  0  0  0  0  0  0  0  0  0
   -1.1170   -3.4460    0.0000 C   0  0  0  0  0  0  0  0  0  0  0  0
   -0.4030   -3.0330    0.0000 C   0  0  0  0  0  0  0  0  0  0  0  0
   -0.4030   -2.2080    0.0000 C   0  0  0  0  0  0  0  0  0  0  0  0
   -1.1170   -1.7960    0.0000 C   0  0  0  0  0  0  0  0  0  0  0  0
    0.3120   -3.4460    0.0000 C   0  0  1  0  0  0  0  0  0  0  0  0
    1.0260   -3.0330    0.0000 C   0  0  1  0  0  0  0  0  0  0  0  0
    1.0260   -2.2080    0.0000 C   0  0  1  0  0  0  0  0  0  0  0  0
    0.3120   -1.7960    0.0000 C   0  0  0  0  0  0  0  0  0  0  0  0
    1.9300   -2.3790    0.0000 N   0  0  0  0  0  0  0  0  0  0  0  0
    1.3950   -4.0760    0.0000 C   0  0  0  0  0  0  0  0  0  0  0  0
   -0.1010   -4.1600    0.0000 C   0  0  0  0  0  0  0  0  0  0  0  0
    2.0890   -3.6690    0.0000 C   0  0  0  0  0  0  0  0  0  0  0  0
    1.7380   -3.4440    0.0000 C   0  0  0  0  0  0  0  0  0  0  0  0
    2.5290   -1.8170    0.0000 C   0  0  1  0  0  0  0  0  0  0  0  0
    3.3170   -2.0560    0.0000 C   0  0  0  0  0  0  0  0  0  0  0  0
    3.5040   -2.8590    0.0000 C   0  0  0  0  0  0  0  0  0  0  0  0
    4.2930   -3.0980    0.0000 C   0  0  0  0  0  0  0  0  0  0  0  0
    4.8960   -2.5340    0.0000 C   0  0  0  0  0  0  0  0  0  0  0  0
    4.7080   -1.7300    0.0000 C   0  0  0  0  0  0  0  0  0  0  0  0
    3.9180   -1.4910    0.0000 C   0  0  0  0  0  0  0  0  0  0  0  0
    5.6830   -2.7720    0.0000 F   0  0  0  0  0  0  0  0  0  0  0  0
    3.7310   -0.6880    0.0000 Cl  0  0  0  0  0  0  0  0  0  0  0  0
   -2.5440   -3.4440    0.0000 N   0  0  0  0  0  0  0  0  0  0  0  0
    2.3420   -1.0140    0.0000 C   0  0  0  0  0  0  0  0  0  0  0  0
    2.9440   -0.4500    0.0000 C   0  0  0  0  0  0  0  0  0  0  0  0
   -3.2580   -3.0320    0.0000 C   0  0  0  0  0  0  0  0  0  0  0  0
   -3.9730   -3.4450    0.0000 C   0  0  0  0  0  0  0  0  0  0  0  0
   -4.7270   -3.1090    0.0000 C   0  0  0  0  0  0  0  0  0  0  0  0
   -5.2780   -3.7230    0.0000 C   0  0  0  0  0  0  0  0  0  0  0  0
   -4.8660   -4.4370    0.0000 N   0  0  0  0  0  0  0  0  0  0  0  0
   -4.0590   -4.2650    0.0000 C   0  0  0  0  0  0  0  0  0  0  0  0
   -4.8980   -2.3030    0.0000 C   0  0  0  0  0  0  0  0  0  0  0  0
   -5.6830   -2.0480    0.0000 O   0  0  0  0  0  0  0  0  0  0  0  0
   -4.2850   -1.7500    0.0000 O   0  0  0  0  0  0  0  0  0  0  0  0
   -4.2850   -0.9250    0.0000 C   0  0  0  0  0  0  0  0  0  0  0  0
   -3.5700   -0.5130    0.0000 C   0  0  0  0  0  0  0  0  0  0  0  0
   -3.5700    0.3120    0.0000 O   0  0  0  0  0  0  0  0  0  0  0  0
   -2.8560    0.7250    0.0000 C   0  0  0  0  0  0  0  0  0  0  0  0
   -2.8560    1.5500    0.0000 C   0  0  0  0  0  0  0  0  0  0  0  0
   -2.1420    1.9620    0.0000 O   0  0  0  0  0  0  0  0  0  0  0  0
   -2.1420    2.7870    0.0000 C   0  0  0  0  0  0  0  0  0  0  0  0
   -1.4270    3.2000    0.0000 C   0  0  0  0  0  0  0  0  0  0  0  0
   -1.4270    4.0250    0.0000 O   0  0  0  0  0  0  0  0  0  0  0  0
   -0.7130    4.4370    0.0000 C   0  0  0  0  0  0  0  0  0  0  0  0
  1  2  2  0  0  0  0
  1  6  1  0  0  0  0
  2  3  1  0  0  0  0
  2 25  1  0  0  0  0
  3  4  2  0  0  0  0
  4  5  1  0  0  0  0
  4  7  1  0  0  0  0
  5  6  2  0  0  0  0
  5 10  1  0  0  0  0
  7  8  1  0  0  0  0
  7 12  1  0  0  0  0
  7 13  1  6  0  0  0
  8  9  1  0  0  0  0
  8 15  1  1  0  0  0
  9 10  1  0  0  0  0
  9 11  1  1  0  0  0
 11 14  1  0  0  0  0
 11 16  1  0  0  0  0
 12 14  1  0  0  0  0
 16 17  1  6  0  0  0
 16 26  1  0  0  0  0
 17 18  1  0  0  0  0
 17 22  2  0  0  0  0
 18 19  2  0  0  0  0
 19 20  1  0  0  0  0
 20 21  2  0  0  0  0
 20 23  1  0  0  0  0
 21 22  1  0  0  0  0
 22 24  1  0  0  0  0
 25 28  1  0  0  0  0
 26 27  1  0  0  0  0
 28 29  1  0  0  0  0
 29 30  1  0  0  0  0
 29 33  2  0  0  0  0
 30 31  2  0  0  0  0
 30 34  1  0  0  0  0
 31 32  1  0  0  0  0
 32 33  1  0  0  0  0
 34 35  2  0  0  0  0
 34 36  1  0  0  0  0
 36 37  1  0  0  0  0
 37 38  1  0  0  0  0
 38 39  1  0  0  0  0
 39 40  1  0  0  0  0
 40 41  1  0  0  0  0
 41 42  1  0  0  0  0
 42 43  1  0  0  0  0
 43 44  1  0  0  0  0
 44 45  1  0  0  0  0
 45 46  1  0  0  0  0
M  END
$$$$
20220309-structures drawed for LXR-18292-203-better than 18292(68).sdf
  MOE2020           2D

 39 43  0  0  1  0  0  0  0  0999 V2000
   -1.8320    0.2360    0.0000 C   0  0  0  0  0  0  0  0  0  0  0  0
   -1.8320   -0.5900    0.0000 C   0  0  0  0  0  0  0  0  0  0  0  0
   -1.1170   -1.0020    0.0000 C   0  0  0  0  0  0  0  0  0  0  0  0
   -0.4030   -0.5900    0.0000 C   0  0  0  0  0  0  0  0  0  0  0  0
   -0.4030    0.2360    0.0000 C   0  0  0  0  0  0  0  0  0  0  0  0
   -1.1170    0.6480    0.0000 C   0  0  0  0  0  0  0  0  0  0  0  0
    0.3120   -1.0020    0.0000 C   0  0  1  0  0  0  0  0  0  0  0  0
    1.0260   -0.5900    0.0000 C   0  0  1  0  0  0  0  0  0  0  0  0
    1.0260    0.2360    0.0000 C   0  0  1  0  0  0  0  0  0  0  0  0
    0.3120    0.6480    0.0000 C   0  0  0  0  0  0  0  0  0  0  0  0
    1.9300    0.0640    0.0000 N   0  0  0  0  0  0  0  0  0  0  0  0
    1.3950   -1.6320    0.0000 C   0  0  0  0  0  0  0  0  0  0  0  0
   -0.1010   -1.7160    0.0000 C   0  0  0  0  0  0  0  0  0  0  0  0
    2.0890   -1.2260    0.0000 C   0  0  0  0  0  0  0  0  0  0  0  0
    1.7380   -1.0000    0.0000 C   0  0  0  0  0  0  0  0  0  0  0  0
    2.5290    0.6260    0.0000 C   0  0  1  0  0  0  0  0  0  0  0  0
    3.3170    0.3880    0.0000 C   0  0  0  0  0  0  0  0  0  0  0  0
    3.5040   -0.4150    0.0000 C   0  0  0  0  0  0  0  0  0  0  0  0
    4.2930   -0.6540    0.0000 C   0  0  0  0  0  0  0  0  0  0  0  0
    4.8960   -0.0900    0.0000 C   0  0  0  0  0  0  0  0  0  0  0  0
    4.7080    0.7130    0.0000 C   0  0  0  0  0  0  0  0  0  0  0  0
    3.9180    0.9520    0.0000 C   0  0  0  0  0  0  0  0  0  0  0  0
    5.6830   -0.3290    0.0000 F   0  0  0  0  0  0  0  0  0  0  0  0
    3.7310    1.7550    0.0000 Cl  0  0  0  0  0  0  0  0  0  0  0  0
   -2.5440   -1.0010    0.0000 N   0  0  0  0  0  0  0  0  0  0  0  0
    2.3420    1.4290    0.0000 C   0  0  0  0  0  0  0  0  0  0  0  0
    2.9440    1.9940    0.0000 C   0  0  0  0  0  0  0  0  0  0  0  0
   -3.2580   -0.5880    0.0000 C   0  0  3  0  0  0  0  0  0  0  0  0
   -3.9730   -1.0020    0.0000 C   0  0  0  0  0  0  0  0  0  0  0  0
   -4.7270   -0.6660    0.0000 C   0  0  0  0  0  0  0  0  0  0  0  0
   -5.2780   -1.2790    0.0000 C   0  0  0  0  0  0  0  0  0  0  0  0
   -4.8660   -1.9940    0.0000 N   0  0  0  0  0  0  0  0  0  0  0  0
   -4.0590   -1.8220    0.0000 C   0  0  0  0  0  0  0  0  0  0  0  0
   -4.8980    0.1410    0.0000 C   0  0  0  0  0  0  0  0  0  0  0  0
   -5.6830    0.3960    0.0000 O   0  0  0  0  0  0  0  0  0  0  0  0
   -4.2850    0.6930    0.0000 O   0  0  0  0  0  0  0  0  0  0  0  0
   -4.2850    1.5180    0.0000 C   0  0  0  0  0  0  0  0  0  0  0  0
   -3.5700    1.9310    0.0000 C   0  0  0  0  0  0  0  0  0  0  0  0
   -3.2580    0.2370    0.0000 C   0  0  0  0  0  0  0  0  0  0  0  0
  1  2  2  0  0  0  0
  1  6  1  0  0  0  0
  2  3  1  0  0  0  0
  2 25  1  0  0  0  0
  3  4  2  0  0  0  0
  4  5  1  0  0  0  0
  4  7  1  0  0  0  0
  5  6  2  0  0  0  0
  5 10  1  0  0  0  0
  7  8  1  0  0  0  0
  7 12  1  0  0  0  0
  7 13  1  6  0  0  0
  8  9  1  0  0  0  0
  8 15  1  1  0  0  0
  9 10  1  0  0  0  0
  9 11  1  1  0  0  0
 11 14  1  0  0  0  0
 11 16  1  0  0  0  0
 12 14  1  0  0  0  0
 16 17  1  6  0  0  0
 16 26  1  0  0  0  0
 17 18  1  0  0  0  0
 17 22  2  0  0  0  0
 18 19  2  0  0  0  0
 19 20  1  0  0  0  0
 20 21  2  0  0  0  0
 20 23  1  0  0  0  0
 21 22  1  0  0  0  0
 22 24  1  0  0  0  0
 25 28  1  0  0  0  0
 26 27  1  0  0  0  0
 28 29  1  0  0  0  0
 28 39  1  0  0  0  0
 29 30  1  0  0  0  0
 29 33  2  0  0  0  0
 30 31  2  0  0  0  0
 30 34  1  0  0  0  0
 31 32  1  0  0  0  0
 32 33  1  0  0  0  0
 34 35  2  0  0  0  0
 34 36  1  0  0  0  0
 36 37  1  0  0  0  0
 37 38  1  0  0  0  0
M  END
$$$$
20220309-structures drawed for LXR-18292-203-better than 18292(68).sdf
  MOE2020           2D

 36 41  0  0  1  0  0  0  0  0999 V2000
   -2.0280    0.1840    0.0000 C   0  0  0  0  0  0  0  0  0  0  0  0
   -2.0280   -0.6410    0.0000 C   0  0  0  0  0  0  0  0  0  0  0  0
   -1.3130   -1.0540    0.0000 C   0  0  0  0  0  0  0  0  0  0  0  0
   -0.5990   -0.6410    0.0000 C   0  0  0  0  0  0  0  0  0  0  0  0
   -0.5990    0.1840    0.0000 C   0  0  0  0  0  0  0  0  0  0  0  0
   -1.3130    0.5960    0.0000 C   0  0  0  0  0  0  0  0  0  0  0  0
    0.1150   -1.0540    0.0000 C   0  0  1  0  0  0  0  0  0  0  0  0
    0.8300   -0.6410    0.0000 C   0  0  1  0  0  0  0  0  0  0  0  0
    0.8300    0.1840    0.0000 C   0  0  1  0  0  0  0  0  0  0  0  0
    0.1150    0.5960    0.0000 C   0  0  0  0  0  0  0  0  0  0  0  0
    1.7330    0.0130    0.0000 N   0  0  0  0  0  0  0  0  0  0  0  0
    1.1990   -1.6840    0.0000 C   0  0  0  0  0  0  0  0  0  0  0  0
   -0.2970   -1.7680    0.0000 C   0  0  0  0  0  0  0  0  0  0  0  0
    1.8930   -1.2770    0.0000 C   0  0  0  0  0  0  0  0  0  0  0  0
    1.5420   -1.0520    0.0000 C   0  0  0  0  0  0  0  0  0  0  0  0
    2.3330    0.5750    0.0000 C   0  0  1  0  0  0  0  0  0  0  0  0
    3.1200    0.3360    0.0000 C   0  0  0  0  0  0  0  0  0  0  0  0
    3.3080   -0.4670    0.0000 C   0  0  0  0  0  0  0  0  0  0  0  0
    4.0970   -0.7060    0.0000 C   0  0  0  0  0  0  0  0  0  0  0  0
    4.6990   -0.1420    0.0000 C   0  0  0  0  0  0  0  0  0  0  0  0
    4.5110    0.6620    0.0000 C   0  0  0  0  0  0  0  0  0  0  0  0
    3.7220    0.9010    0.0000 C   0  0  0  0  0  0  0  0  0  0  0  0
    5.4860   -0.3800    0.0000 F   0  0  0  0  0  0  0  0  0  0  0  0
    3.5350    1.7040    0.0000 Cl  0  0  0  0  0  0  0  0  0  0  0  0
   -2.7400   -1.0520    0.0000 N   0  0  0  0  0  0  0  0  0  0  0  0
    2.1460    1.3780    0.0000 C   0  0  0  0  0  0  0  0  0  0  0  0
    2.7470    1.9420    0.0000 C   0  0  0  0  0  0  0  0  0  0  0  0
   -3.4520   -0.6410    0.0000 C   0  0  0  0  0  0  0  0  0  0  0  0
   -4.1640   -1.0520    0.0000 C   0  0  0  0  0  0  0  0  0  0  0  0
   -4.8760   -0.6410    0.0000 C   0  0  0  0  0  0  0  0  0  0  0  0
   -5.4860   -1.1910    0.0000 C   0  0  0  0  0  0  0  0  0  0  0  0
   -5.1520   -1.9420    0.0000 N   0  0  0  0  0  0  0  0  0  0  0  0
   -4.3350   -1.8560    0.0000 C   0  0  0  0  0  0  0  0  0  0  0  0
   -3.4520    0.1810    0.0000 C   0  0  0  0  0  0  0  0  0  0  0  0
   -4.8760    0.1810    0.0000 C   0  0  0  0  0  0  0  0  0  0  0  0
   -4.1640    0.5920    0.0000 N   0  0  0  0  0  0  0  0  0  0  0  0
  1  2  2  0  0  0  0
  1  6  1  0  0  0  0
  2  3  1  0  0  0  0
  2 25  1  0  0  0  0
  3  4  2  0  0  0  0
  4  5  1  0  0  0  0
  4  7  1  0  0  0  0
  5  6  2  0  0  0  0
  5 10  1  0  0  0  0
  7  8  1  0  0  0  0
  7 12  1  0  0  0  0
  7 13  1  6  0  0  0
  8  9  1  0  0  0  0
  8 15  1  1  0  0  0
  9 10  1  0  0  0  0
  9 11  1  1  0  0  0
 11 14  1  0  0  0  0
 11 16  1  0  0  0  0
 12 14  1  0  0  0  0
 16 17  1  6  0  0  0
 16 26  1  0  0  0  0
 17 18  1  0  0  0  0
 17 22  2  0  0  0  0
 18 19  2  0  0  0  0
 19 20  1  0  0  0  0
 20 21  2  0  0  0  0
 20 23  1  0  0  0  0
 21 22  1  0  0  0  0
 22 24  1  0  0  0  0
 25 28  1  0  0  0  0
 26 27  1  0  0  0  0
 28 29  1  0  0  0  0
 28 34  2  0  0  0  0
 29 30  1  0  0  0  0
 29 33  2  0  0  0  0
 30 31  2  0  0  0  0
 30 35  1  0  0  0  0
 31 32  1  0  0  0  0
 32 33  1  0  0  0  0
 34 36  1  0  0  0  0
 35 36  2  0  0  0  0
M  END
$$$$
20220309-structures drawed for LXR-18292-203-better than 18292(68).sdf
  MOE2020           2D

 37 42  0  0  1  0  0  0  0  0999 V2000
   -1.5510    0.1840    0.0000 C   0  0  0  0  0  0  0  0  0  0  0  0
   -1.5510   -0.6410    0.0000 C   0  0  0  0  0  0  0  0  0  0  0  0
   -0.8370   -1.0540    0.0000 C   0  0  0  0  0  0  0  0  0  0  0  0
   -0.1220   -0.6410    0.0000 C   0  0  0  0  0  0  0  0  0  0  0  0
   -0.1220    0.1840    0.0000 C   0  0  0  0  0  0  0  0  0  0  0  0
   -0.8370    0.5960    0.0000 C   0  0  0  0  0  0  0  0  0  0  0  0
    0.5920   -1.0540    0.0000 C   0  0  1  0  0  0  0  0  0  0  0  0
    1.3060   -0.6410    0.0000 C   0  0  1  0  0  0  0  0  0  0  0  0
    1.3060    0.1840    0.0000 C   0  0  1  0  0  0  0  0  0  0  0  0
    0.5920    0.5960    0.0000 C   0  0  0  0  0  0  0  0  0  0  0  0
    2.2100    0.0130    0.0000 N   0  0  0  0  0  0  0  0  0  0  0  0
    1.6760   -1.6840    0.0000 C   0  0  0  0  0  0  0  0  0  0  0  0
    0.1800   -1.7680    0.0000 C   0  0  0  0  0  0  0  0  0  0  0  0
    2.3700   -1.2770    0.0000 C   0  0  0  0  0  0  0  0  0  0  0  0
    2.0190   -1.0520    0.0000 C   0  0  0  0  0  0  0  0  0  0  0  0
    2.8100    0.5750    0.0000 C   0  0  1  0  0  0  0  0  0  0  0  0
    3.5970    0.3360    0.0000 C   0  0  0  0  0  0  0  0  0  0  0  0
    3.7840   -0.4670    0.0000 C   0  0  0  0  0  0  0  0  0  0  0  0
    4.5740   -0.7060    0.0000 C   0  0  0  0  0  0  0  0  0  0  0  0
    5.1760   -0.1420    0.0000 C   0  0  0  0  0  0  0  0  0  0  0  0
    4.9880    0.6620    0.0000 C   0  0  0  0  0  0  0  0  0  0  0  0
    4.1990    0.9010    0.0000 C   0  0  0  0  0  0  0  0  0  0  0  0
    5.9630   -0.3800    0.0000 F   0  0  0  0  0  0  0  0  0  0  0  0
    4.0110    1.7040    0.0000 Cl  0  0  0  0  0  0  0  0  0  0  0  0
   -2.2630   -1.0520    0.0000 N   0  0  0  0  0  0  0  0  0  0  0  0
    2.6220    1.3780    0.0000 C   0  0  0  0  0  0  0  0  0  0  0  0
    3.2240    1.9420    0.0000 C   0  0  0  0  0  0  0  0  0  0  0  0
   -2.9750   -0.6410    0.0000 C   0  0  0  0  0  0  0  0  0  0  0  0
   -3.6870   -1.0520    0.0000 C   0  0  0  0  0  0  0  0  0  0  0  0
   -4.3990   -0.6410    0.0000 C   0  0  0  0  0  0  0  0  0  0  0  0
   -5.0100   -1.1910    0.0000 C   0  0  0  0  0  0  0  0  0  0  0  0
   -4.6760   -1.9420    0.0000 N   0  0  0  0  0  0  0  0  0  0  0  0
   -3.8580   -1.8560    0.0000 C   0  0  0  0  0  0  0  0  0  0  0  0
   -4.5700    0.1630    0.0000 N   0  0  0  0  0  0  0  0  0  0  0  0
   -5.3520    0.4170    0.0000 C   0  0  0  0  0  0  0  0  0  0  0  0
   -5.9630   -0.1330    0.0000 C   0  0  0  0  0  0  0  0  0  0  0  0
   -5.7920   -0.9370    0.0000 C   0  0  0  0  0  0  0  0  0  0  0  0
  1  2  2  0  0  0  0
  1  6  1  0  0  0  0
  2  3  1  0  0  0  0
  2 25  1  0  0  0  0
  3  4  2  0  0  0  0
  4  5  1  0  0  0  0
  4  7  1  0  0  0  0
  5  6  2  0  0  0  0
  5 10  1  0  0  0  0
  7  8  1  0  0  0  0
  7 12  1  0  0  0  0
  7 13  1  6  0  0  0
  8  9  1  0  0  0  0
  8 15  1  1  0  0  0
  9 10  1  0  0  0  0
  9 11  1  1  0  0  0
 11 14  1  0  0  0  0
 11 16  1  0  0  0  0
 12 14  1  0  0  0  0
 16 17  1  6  0  0  0
 16 26  1  0  0  0  0
 17 18  1  0  0  0  0
 17 22  2  0  0  0  0
 18 19  2  0  0  0  0
 19 20  1  0  0  0  0
 20 21  2  0  0  0  0
 20 23  1  0  0  0  0
 21 22  1  0  0  0  0
 22 24  1  0  0  0  0
 25 28  1  0  0  0  0
 26 27  1  0  0  0  0
 28 29  1  0  0  0  0
 29 30  1  0  0  0  0
 29 33  2  0  0  0  0
 30 31  2  0  0  0  0
 30 34  1  0  0  0  0
 31 32  1  0  0  0  0
 31 37  1  0  0  0  0
 32 33  1  0  0  0  0
 34 35  2  0  0  0  0
 35 36  1  0  0  0  0
 36 37  2  0  0  0  0
M  END
$$$$
20220309-structures drawed for LXR-18292-203-better than 18292(68).sdf
  MOE2020           2D

 38 43  0  0  1  0  0  0  0  0999 V2000
   -1.8470    0.2360    0.0000 C   0  0  0  0  0  0  0  0  0  0  0  0
   -1.8470   -0.5900    0.0000 C   0  0  0  0  0  0  0  0  0  0  0  0
   -1.1330   -1.0020    0.0000 C   0  0  0  0  0  0  0  0  0  0  0  0
   -0.4180   -0.5900    0.0000 C   0  0  0  0  0  0  0  0  0  0  0  0
   -0.4180    0.2360    0.0000 C   0  0  0  0  0  0  0  0  0  0  0  0
   -1.1330    0.6480    0.0000 C   0  0  0  0  0  0  0  0  0  0  0  0
    0.2960   -1.0020    0.0000 C   0  0  1  0  0  0  0  0  0  0  0  0
    1.0100   -0.5900    0.0000 C   0  0  1  0  0  0  0  0  0  0  0  0
    1.0100    0.2360    0.0000 C   0  0  1  0  0  0  0  0  0  0  0  0
    0.2960    0.6480    0.0000 C   0  0  0  0  0  0  0  0  0  0  0  0
    1.9140    0.0640    0.0000 N   0  0  0  0  0  0  0  0  0  0  0  0
    1.3790   -1.6320    0.0000 C   0  0  0  0  0  0  0  0  0  0  0  0
   -0.1170   -1.7160    0.0000 C   0  0  0  0  0  0  0  0  0  0  0  0
    2.0740   -1.2260    0.0000 C   0  0  0  0  0  0  0  0  0  0  0  0
    1.7220   -1.0000    0.0000 C   0  0  0  0  0  0  0  0  0  0  0  0
    2.5140    0.6260    0.0000 C   0  0  1  0  0  0  0  0  0  0  0  0
    3.3010    0.3880    0.0000 C   0  0  0  0  0  0  0  0  0  0  0  0
    3.4880   -0.4150    0.0000 C   0  0  0  0  0  0  0  0  0  0  0  0
    4.2780   -0.6540    0.0000 C   0  0  0  0  0  0  0  0  0  0  0  0
    4.8800   -0.0900    0.0000 C   0  0  0  0  0  0  0  0  0  0  0  0
    4.6920    0.7130    0.0000 C   0  0  0  0  0  0  0  0  0  0  0  0
    3.9020    0.9520    0.0000 C   0  0  0  0  0  0  0  0  0  0  0  0
    5.6670   -0.3290    0.0000 F   0  0  0  0  0  0  0  0  0  0  0  0
    3.7150    1.7550    0.0000 Cl  0  0  0  0  0  0  0  0  0  0  0  0
   -2.5600   -1.0010    0.0000 N   0  0  0  0  0  0  0  0  0  0  0  0
    2.3260    1.4290    0.0000 C   0  0  0  0  0  0  0  0  0  0  0  0
    2.9280    1.9940    0.0000 C   0  0  0  0  0  0  0  0  0  0  0  0
   -3.2740   -0.5890    0.0000 C   0  0  0  0  0  0  0  0  0  0  0  0
   -3.9880   -1.0020    0.0000 C   0  0  0  0  0  0  0  0  0  0  0  0
   -4.7420   -0.6660    0.0000 C   0  0  0  0  0  0  0  0  0  0  0  0
   -5.2940   -1.2790    0.0000 C   0  0  0  0  0  0  0  0  0  0  0  0
   -4.8820   -1.9940    0.0000 N   0  0  0  0  0  0  0  0  0  0  0  0
   -4.0740   -1.8220    0.0000 C   0  0  0  0  0  0  0  0  0  0  0  0
   -4.9140    0.1410    0.0000 C   0  0  0  0  0  0  0  0  0  0  0  0
   -4.3610    0.7540    0.0000 C   0  0  0  0  0  0  0  0  0  0  0  0
   -4.7740    1.4680    0.0000 N   0  0  0  0  0  0  0  0  0  0  0  0
   -5.5800    1.2970    0.0000 C   0  0  0  0  0  0  0  0  0  0  0  0
   -5.6670    0.4770    0.0000 O   0  0  0  0  0  0  0  0  0  0  0  0
  1  2  2  0  0  0  0
  1  6  1  0  0  0  0
  2  3  1  0  0  0  0
  2 25  1  0  0  0  0
  3  4  2  0  0  0  0
  4  5  1  0  0  0  0
  4  7  1  0  0  0  0
  5  6  2  0  0  0  0
  5 10  1  0  0  0  0
  7  8  1  0  0  0  0
  7 12  1  0  0  0  0
  7 13  1  6  0  0  0
  8  9  1  0  0  0  0
  8 15  1  1  0  0  0
  9 10  1  0  0  0  0
  9 11  1  1  0  0  0
 11 14  1  0  0  0  0
 11 16  1  0  0  0  0
 12 14  1  0  0  0  0
 16 17  1  6  0  0  0
 16 26  1  0  0  0  0
 17 18  1  0  0  0  0
 17 22  2  0  0  0  0
 18 19  2  0  0  0  0
 19 20  1  0  0  0  0
 20 21  2  0  0  0  0
 20 23  1  0  0  0  0
 21 22  1  0  0  0  0
 22 24  1  0  0  0  0
 25 28  1  0  0  0  0
 26 27  1  0  0  0  0
 28 29  1  0  0  0  0
 29 30  1  0  0  0  0
 29 33  2  0  0  0  0
 30 31  2  0  0  0  0
 30 34  1  0  0  0  0
 31 32  1  0  0  0  0
 32 33  1  0  0  0  0
 34 35  2  0  0  0  0
 34 38  1  0  0  0  0
 35 36  1  0  0  0  0
 36 37  2  0  0  0  0
 37 38  1  0  0  0  0
M  END
$$$$
20220309-structures drawed for LXR-18292-203-better than 18292(68).sdf
  MOE2020           2D

 39 44  0  0  1  0  0  0  0  0999 V2000
   -1.8470    0.2360    0.0000 C   0  0  0  0  0  0  0  0  0  0  0  0
   -1.8470   -0.5900    0.0000 C   0  0  0  0  0  0  0  0  0  0  0  0
   -1.1330   -1.0020    0.0000 C   0  0  0  0  0  0  0  0  0  0  0  0
   -0.4180   -0.5900    0.0000 C   0  0  0  0  0  0  0  0  0  0  0  0
   -0.4180    0.2360    0.0000 C   0  0  0  0  0  0  0  0  0  0  0  0
   -1.1330    0.6480    0.0000 C   0  0  0  0  0  0  0  0  0  0  0  0
    0.2960   -1.0020    0.0000 C   0  0  1  0  0  0  0  0  0  0  0  0
    1.0100   -0.5900    0.0000 C   0  0  1  0  0  0  0  0  0  0  0  0
    1.0100    0.2360    0.0000 C   0  0  1  0  0  0  0  0  0  0  0  0
    0.2960    0.6480    0.0000 C   0  0  0  0  0  0  0  0  0  0  0  0
    1.9140    0.0640    0.0000 N   0  0  0  0  0  0  0  0  0  0  0  0
    1.3790   -1.6320    0.0000 C   0  0  0  0  0  0  0  0  0  0  0  0
   -0.1170   -1.7160    0.0000 C   0  0  0  0  0  0  0  0  0  0  0  0
    2.0740   -1.2260    0.0000 C   0  0  0  0  0  0  0  0  0  0  0  0
    1.7220   -1.0000    0.0000 C   0  0  0  0  0  0  0  0  0  0  0  0
    2.5140    0.6260    0.0000 C   0  0  1  0  0  0  0  0  0  0  0  0
    3.3010    0.3880    0.0000 C   0  0  0  0  0  0  0  0  0  0  0  0
    3.4880   -0.4150    0.0000 C   0  0  0  0  0  0  0  0  0  0  0  0
    4.2780   -0.6540    0.0000 C   0  0  0  0  0  0  0  0  0  0  0  0
    4.8800   -0.0900    0.0000 C   0  0  0  0  0  0  0  0  0  0  0  0
    4.6920    0.7130    0.0000 C   0  0  0  0  0  0  0  0  0  0  0  0
    3.9020    0.9520    0.0000 C   0  0  0  0  0  0  0  0  0  0  0  0
    5.6670   -0.3290    0.0000 F   0  0  0  0  0  0  0  0  0  0  0  0
    3.7150    1.7550    0.0000 Cl  0  0  0  0  0  0  0  0  0  0  0  0
   -2.5600   -1.0010    0.0000 N   0  0  0  0  0  0  0  0  0  0  0  0
    2.3260    1.4290    0.0000 C   0  0  0  0  0  0  0  0  0  0  0  0
    2.9280    1.9940    0.0000 C   0  0  0  0  0  0  0  0  0  0  0  0
   -3.2740   -0.5890    0.0000 C   0  0  0  0  0  0  0  0  0  0  0  0
   -3.9880   -1.0020    0.0000 C   0  0  0  0  0  0  0  0  0  0  0  0
   -4.7420   -0.6660    0.0000 C   0  0  0  0  0  0  0  0  0  0  0  0
   -5.2940   -1.2790    0.0000 C   0  0  0  0  0  0  0  0  0  0  0  0
   -4.8820   -1.9940    0.0000 N   0  0  0  0  0  0  0  0  0  0  0  0
   -4.0740   -1.8220    0.0000 C   0  0  0  0  0  0  0  0  0  0  0  0
   -4.9140    0.1410    0.0000 N   0  0  0  0  0  0  0  0  0  0  0  0
   -4.3610    0.7540    0.0000 C   0  0  0  0  0  0  0  0  0  0  0  0
   -4.7740    1.4680    0.0000 N   0  0  0  0  0  0  0  0  0  0  0  0
   -5.5800    1.2970    0.0000 C   0  0  0  0  0  0  0  0  0  0  0  0
   -5.6670    0.4770    0.0000 C   0  0  0  0  0  0  0  0  0  0  0  0
   -3.5410    0.6670    0.0000 O   0  0  0  0  0  0  0  0  0  0  0  0
  1  2  2  0  0  0  0
  1  6  1  0  0  0  0
  2  3  1  0  0  0  0
  2 25  1  0  0  0  0
  3  4  2  0  0  0  0
  4  5  1  0  0  0  0
  4  7  1  0  0  0  0
  5  6  2  0  0  0  0
  5 10  1  0  0  0  0
  7  8  1  0  0  0  0
  7 12  1  0  0  0  0
  7 13  1  6  0  0  0
  8  9  1  0  0  0  0
  8 15  1  1  0  0  0
  9 10  1  0  0  0  0
  9 11  1  1  0  0  0
 11 14  1  0  0  0  0
 11 16  1  0  0  0  0
 12 14  1  0  0  0  0
 16 17  1  6  0  0  0
 16 26  1  0  0  0  0
 17 18  1  0  0  0  0
 17 22  2  0  0  0  0
 18 19  2  0  0  0  0
 19 20  1  0  0  0  0
 20 21  2  0  0  0  0
 20 23  1  0  0  0  0
 21 22  1  0  0  0  0
 22 24  1  0  0  0  0
 25 28  1  0  0  0  0
 26 27  1  0  0  0  0
 28 29  1  0  0  0  0
 29 30  1  0  0  0  0
 29 33  2  0  0  0  0
 30 31  2  0  0  0  0
 30 34  1  0  0  0  0
 31 32  1  0  0  0  0
 32 33  1  0  0  0  0
 34 35  1  0  0  0  0
 34 38  1  0  0  0  0
 35 36  1  0  0  0  0
 35 39  2  0  0  0  0
 36 37  1  0  0  0  0
 37 38  2  0  0  0  0
M  END
$$$$
20220309-structures drawed for LXR-18292-203-better than 18292(68).sdf
  MOE2020           2D

 38 43  0  0  1  0  0  0  0  0999 V2000
   -1.8470    0.2360    0.0000 C   0  0  0  0  0  0  0  0  0  0  0  0
   -1.8470   -0.5900    0.0000 C   0  0  0  0  0  0  0  0  0  0  0  0
   -1.1330   -1.0020    0.0000 C   0  0  0  0  0  0  0  0  0  0  0  0
   -0.4180   -0.5900    0.0000 C   0  0  0  0  0  0  0  0  0  0  0  0
   -0.4180    0.2360    0.0000 C   0  0  0  0  0  0  0  0  0  0  0  0
   -1.1330    0.6480    0.0000 C   0  0  0  0  0  0  0  0  0  0  0  0
    0.2960   -1.0020    0.0000 C   0  0  1  0  0  0  0  0  0  0  0  0
    1.0100   -0.5900    0.0000 C   0  0  1  0  0  0  0  0  0  0  0  0
    1.0100    0.2360    0.0000 C   0  0  1  0  0  0  0  0  0  0  0  0
    0.2960    0.6480    0.0000 C   0  0  0  0  0  0  0  0  0  0  0  0
    1.9140    0.0640    0.0000 N   0  0  0  0  0  0  0  0  0  0  0  0
    1.3790   -1.6320    0.0000 C   0  0  0  0  0  0  0  0  0  0  0  0
   -0.1170   -1.7160    0.0000 C   0  0  0  0  0  0  0  0  0  0  0  0
    2.0740   -1.2260    0.0000 C   0  0  0  0  0  0  0  0  0  0  0  0
    1.7220   -1.0000    0.0000 C   0  0  0  0  0  0  0  0  0  0  0  0
    2.5140    0.6260    0.0000 C   0  0  1  0  0  0  0  0  0  0  0  0
    3.3010    0.3880    0.0000 C   0  0  0  0  0  0  0  0  0  0  0  0
    3.4880   -0.4150    0.0000 C   0  0  0  0  0  0  0  0  0  0  0  0
    4.2780   -0.6540    0.0000 C   0  0  0  0  0  0  0  0  0  0  0  0
    4.8800   -0.0900    0.0000 C   0  0  0  0  0  0  0  0  0  0  0  0
    4.6920    0.7130    0.0000 C   0  0  0  0  0  0  0  0  0  0  0  0
    3.9020    0.9520    0.0000 C   0  0  0  0  0  0  0  0  0  0  0  0
    5.6670   -0.3290    0.0000 F   0  0  0  0  0  0  0  0  0  0  0  0
    3.7150    1.7550    0.0000 Cl  0  0  0  0  0  0  0  0  0  0  0  0
   -2.5600   -1.0010    0.0000 N   0  0  0  0  0  0  0  0  0  0  0  0
    2.3260    1.4290    0.0000 C   0  0  0  0  0  0  0  0  0  0  0  0
    2.9280    1.9940    0.0000 C   0  0  0  0  0  0  0  0  0  0  0  0
   -3.2740   -0.5890    0.0000 C   0  0  0  0  0  0  0  0  0  0  0  0
   -3.9880   -1.0020    0.0000 C   0  0  0  0  0  0  0  0  0  0  0  0
   -4.7420   -0.6660    0.0000 C   0  0  0  0  0  0  0  0  0  0  0  0
   -5.2940   -1.2790    0.0000 C   0  0  0  0  0  0  0  0  0  0  0  0
   -4.8820   -1.9940    0.0000 N   0  0  0  0  0  0  0  0  0  0  0  0
   -4.0740   -1.8220    0.0000 C   0  0  0  0  0  0  0  0  0  0  0  0
   -4.9140    0.1410    0.0000 C   0  0  0  0  0  0  0  0  0  0  0  0
   -4.3610    0.7540    0.0000 C   0  0  0  0  0  0  0  0  0  0  0  0
   -4.7740    1.4680    0.0000 C   0  0  0  0  0  0  0  0  0  0  0  0
   -5.5800    1.2970    0.0000 S   0  0  0  0  0  0  0  0  0  0  0  0
   -5.6670    0.4770    0.0000 C   0  0  0  0  0  0  0  0  0  0  0  0
  1  2  2  0  0  0  0
  1  6  1  0  0  0  0
  2  3  1  0  0  0  0
  2 25  1  0  0  0  0
  3  4  2  0  0  0  0
  4  5  1  0  0  0  0
  4  7  1  0  0  0  0
  5  6  2  0  0  0  0
  5 10  1  0  0  0  0
  7  8  1  0  0  0  0
  7 12  1  0  0  0  0
  7 13  1  6  0  0  0
  8  9  1  0  0  0  0
  8 15  1  1  0  0  0
  9 10  1  0  0  0  0
  9 11  1  1  0  0  0
 11 14  1  0  0  0  0
 11 16  1  0  0  0  0
 12 14  1  0  0  0  0
 16 17  1  6  0  0  0
 16 26  1  0  0  0  0
 17 18  1  0  0  0  0
 17 22  2  0  0  0  0
 18 19  2  0  0  0  0
 19 20  1  0  0  0  0
 20 21  2  0  0  0  0
 20 23  1  0  0  0  0
 21 22  1  0  0  0  0
 22 24  1  0  0  0  0
 25 28  1  0  0  0  0
 26 27  1  0  0  0  0
 28 29  1  0  0  0  0
 29 30  1  0  0  0  0
 29 33  2  0  0  0  0
 30 31  2  0  0  0  0
 30 34  1  0  0  0  0
 31 32  1  0  0  0  0
 32 33  1  0  0  0  0
 34 35  1  0  0  0  0
 34 38  2  0  0  0  0
 35 36  2  0  0  0  0
 36 37  1  0  0  0  0
 37 38  1  0  0  0  0
M  END
$$$$
20220309-structures drawed for LXR-18292-203-better than 18292(68).sdf
  MOE2020           2D

 38 43  0  0  1  0  0  0  0  0999 V2000
   -1.8470    0.2360    0.0000 C   0  0  0  0  0  0  0  0  0  0  0  0
   -1.8470   -0.5900    0.0000 C   0  0  0  0  0  0  0  0  0  0  0  0
   -1.1330   -1.0020    0.0000 C   0  0  0  0  0  0  0  0  0  0  0  0
   -0.4180   -0.5900    0.0000 C   0  0  0  0  0  0  0  0  0  0  0  0
   -0.4180    0.2360    0.0000 C   0  0  0  0  0  0  0  0  0  0  0  0
   -1.1330    0.6480    0.0000 C   0  0  0  0  0  0  0  0  0  0  0  0
    0.2960   -1.0020    0.0000 C   0  0  1  0  0  0  0  0  0  0  0  0
    1.0100   -0.5900    0.0000 C   0  0  1  0  0  0  0  0  0  0  0  0
    1.0100    0.2360    0.0000 C   0  0  1  0  0  0  0  0  0  0  0  0
    0.2960    0.6480    0.0000 C   0  0  0  0  0  0  0  0  0  0  0  0
    1.9140    0.0640    0.0000 N   0  0  0  0  0  0  0  0  0  0  0  0
    1.3790   -1.6320    0.0000 C   0  0  0  0  0  0  0  0  0  0  0  0
   -0.1170   -1.7160    0.0000 C   0  0  0  0  0  0  0  0  0  0  0  0
    2.0740   -1.2260    0.0000 C   0  0  0  0  0  0  0  0  0  0  0  0
    1.7220   -1.0000    0.0000 C   0  0  0  0  0  0  0  0  0  0  0  0
    2.5140    0.6260    0.0000 C   0  0  1  0  0  0  0  0  0  0  0  0
    3.3010    0.3880    0.0000 C   0  0  0  0  0  0  0  0  0  0  0  0
    3.4880   -0.4150    0.0000 C   0  0  0  0  0  0  0  0  0  0  0  0
    4.2780   -0.6540    0.0000 C   0  0  0  0  0  0  0  0  0  0  0  0
    4.8800   -0.0900    0.0000 C   0  0  0  0  0  0  0  0  0  0  0  0
    4.6920    0.7130    0.0000 C   0  0  0  0  0  0  0  0  0  0  0  0
    3.9020    0.9520    0.0000 C   0  0  0  0  0  0  0  0  0  0  0  0
    5.6670   -0.3290    0.0000 F   0  0  0  0  0  0  0  0  0  0  0  0
    3.7150    1.7550    0.0000 Cl  0  0  0  0  0  0  0  0  0  0  0  0
   -2.5600   -1.0010    0.0000 N   0  0  0  0  0  0  0  0  0  0  0  0
    2.3260    1.4290    0.0000 C   0  0  0  0  0  0  0  0  0  0  0  0
    2.9280    1.9940    0.0000 C   0  0  0  0  0  0  0  0  0  0  0  0
   -3.2740   -0.5890    0.0000 C   0  0  0  0  0  0  0  0  0  0  0  0
   -3.9880   -1.0020    0.0000 C   0  0  0  0  0  0  0  0  0  0  0  0
   -4.7420   -0.6660    0.0000 C   0  0  0  0  0  0  0  0  0  0  0  0
   -5.2940   -1.2790    0.0000 C   0  0  0  0  0  0  0  0  0  0  0  0
   -4.8820   -1.9940    0.0000 N   0  0  0  0  0  0  0  0  0  0  0  0
   -4.0740   -1.8220    0.0000 C   0  0  0  0  0  0  0  0  0  0  0  0
   -4.9140    0.1410    0.0000 C   0  0  0  0  0  0  0  0  0  0  0  0
   -4.3610    0.7540    0.0000 C   0  0  0  0  0  0  0  0  0  0  0  0
   -4.7740    1.4680    0.0000 O   0  0  0  0  0  0  0  0  0  0  0  0
   -5.5800    1.2970    0.0000 N   0  0  0  0  0  0  0  0  0  0  0  0
   -5.6670    0.4770    0.0000 C   0  0  0  0  0  0  0  0  0  0  0  0
  1  2  2  0  0  0  0
  1  6  1  0  0  0  0
  2  3  1  0  0  0  0
  2 25  1  0  0  0  0
  3  4  2  0  0  0  0
  4  5  1  0  0  0  0
  4  7  1  0  0  0  0
  5  6  2  0  0  0  0
  5 10  1  0  0  0  0
  7  8  1  0  0  0  0
  7 12  1  0  0  0  0
  7 13  1  6  0  0  0
  8  9  1  0  0  0  0
  8 15  1  1  0  0  0
  9 10  1  0  0  0  0
  9 11  1  1  0  0  0
 11 14  1  0  0  0  0
 11 16  1  0  0  0  0
 12 14  1  0  0  0  0
 16 17  1  6  0  0  0
 16 26  1  0  0  0  0
 17 18  1  0  0  0  0
 17 22  2  0  0  0  0
 18 19  2  0  0  0  0
 19 20  1  0  0  0  0
 20 21  2  0  0  0  0
 20 23  1  0  0  0  0
 21 22  1  0  0  0  0
 22 24  1  0  0  0  0
 25 28  1  0  0  0  0
 26 27  1  0  0  0  0
 28 29  1  0  0  0  0
 29 30  1  0  0  0  0
 29 33  2  0  0  0  0
 30 31  2  0  0  0  0
 30 34  1  0  0  0  0
 31 32  1  0  0  0  0
 32 33  1  0  0  0  0
 34 35  2  0  0  0  0
 34 38  1  0  0  0  0
 35 36  1  0  0  0  0
 36 37  1  0  0  0  0
 37 38  2  0  0  0  0
M  END
$$$$
20220309-structures drawed for LXR-18292-203-better than 18292(68).sdf
  MOE2020           2D

 44 48  0  0  1  0  0  0  0  0999 V2000
   -1.1330    2.0330    0.0000 C   0  0  0  0  0  0  0  0  0  0  0  0
   -1.1330    1.2080    0.0000 C   0  0  0  0  0  0  0  0  0  0  0  0
   -0.4180    0.7960    0.0000 C   0  0  0  0  0  0  0  0  0  0  0  0
    0.2960    1.2080    0.0000 C   0  0  0  0  0  0  0  0  0  0  0  0
    0.2960    2.0330    0.0000 C   0  0  0  0  0  0  0  0  0  0  0  0
   -0.4180    2.4460    0.0000 C   0  0  0  0  0  0  0  0  0  0  0  0
    1.0100    0.7960    0.0000 C   0  0  1  0  0  0  0  0  0  0  0  0
    1.7250    1.2080    0.0000 C   0  0  1  0  0  0  0  0  0  0  0  0
    1.7250    2.0330    0.0000 C   0  0  1  0  0  0  0  0  0  0  0  0
    1.0100    2.4460    0.0000 C   0  0  0  0  0  0  0  0  0  0  0  0
    2.6280    1.8620    0.0000 N   0  0  0  0  0  0  0  0  0  0  0  0
    2.0940    0.1660    0.0000 C   0  0  0  0  0  0  0  0  0  0  0  0
    0.5980    0.0810    0.0000 C   0  0  0  0  0  0  0  0  0  0  0  0
    2.7880    0.5720    0.0000 C   0  0  0  0  0  0  0  0  0  0  0  0
    2.4370    0.7980    0.0000 C   0  0  0  0  0  0  0  0  0  0  0  0
    3.2280    2.4240    0.0000 C   0  0  1  0  0  0  0  0  0  0  0  0
    4.0150    2.1860    0.0000 C   0  0  0  0  0  0  0  0  0  0  0  0
    4.2030    1.3820    0.0000 C   0  0  0  0  0  0  0  0  0  0  0  0
    4.9920    1.1440    0.0000 C   0  0  0  0  0  0  0  0  0  0  0  0
    5.5940    1.7070    0.0000 C   0  0  0  0  0  0  0  0  0  0  0  0
    5.4060    2.5110    0.0000 C   0  0  0  0  0  0  0  0  0  0  0  0
    4.6170    2.7500    0.0000 C   0  0  0  0  0  0  0  0  0  0  0  0
    6.3810    1.4690    0.0000 F   0  0  0  0  0  0  0  0  0  0  0  0
    4.4300    3.5530    0.0000 Cl  0  0  0  0  0  0  0  0  0  0  0  0
   -1.8450    0.7970    0.0000 N   0  0  0  0  0  0  0  0  0  0  0  0
    3.0410    3.2270    0.0000 C   0  0  0  0  0  0  0  0  0  0  0  0
    3.6420    3.7920    0.0000 C   0  0  0  0  0  0  0  0  0  0  0  0
   -2.5600    1.2090    0.0000 C   0  0  0  0  0  0  0  0  0  0  0  0
   -3.2740    0.7960    0.0000 C   0  0  0  0  0  0  0  0  0  0  0  0
   -4.0280    1.1320    0.0000 C   0  0  0  0  0  0  0  0  0  0  0  0
   -4.5800    0.5180    0.0000 N   0  0  0  0  0  0  0  0  0  0  0  0
   -4.1670   -0.1960    0.0000 N   0  0  0  0  0  0  0  0  0  0  0  0
   -3.3600   -0.0240    0.0000 C   0  0  0  0  0  0  0  0  0  0  0  0
   -4.1990    1.9390    0.0000 C   0  0  0  0  0  0  0  0  0  0  0  0
   -3.5860    2.4900    0.0000 O   0  0  0  0  0  0  0  0  0  0  0  0
   -4.9840    2.1940    0.0000 O   0  0  0  0  0  0  0  0  0  0  0  0
   -5.5960    1.6420    0.0000 C   0  0  0  0  0  0  0  0  0  0  0  0
   -6.3810    1.8980    0.0000 C   0  0  0  0  0  0  0  0  0  0  0  0
   -4.5020   -0.9500    0.0000 C   0  0  0  0  0  0  0  0  0  0  0  0
   -4.0170   -1.6170    0.0000 C   0  0  0  0  0  0  0  0  0  0  0  0
   -4.3530   -2.3710    0.0000 O   0  0  0  0  0  0  0  0  0  0  0  0
   -3.1970   -1.5310    0.0000 O   0  0  0  0  0  0  0  0  0  0  0  0
   -3.8680   -3.0380    0.0000 C   0  0  0  0  0  0  0  0  0  0  0  0
   -4.2030   -3.7920    0.0000 C   0  0  0  0  0  0  0  0  0  0  0  0
  1  2  2  0  0  0  0
  1  6  1  0  0  0  0
  2  3  1  0  0  0  0
  2 25  1  0  0  0  0
  3  4  2  0  0  0  0
  4  5  1  0  0  0  0
  4  7  1  0  0  0  0
  5  6  2  0  0  0  0
  5 10  1  0  0  0  0
  7  8  1  0  0  0  0
  7 12  1  0  0  0  0
  7 13  1  6  0  0  0
  8  9  1  0  0  0  0
  8 15  1  1  0  0  0
  9 10  1  0  0  0  0
  9 11  1  1  0  0  0
 11 14  1  0  0  0  0
 11 16  1  0  0  0  0
 12 14  1  0  0  0  0
 16 17  1  6  0  0  0
 16 26  1  0  0  0  0
 17 18  1  0  0  0  0
 17 22  2  0  0  0  0
 18 19  2  0  0  0  0
 19 20  1  0  0  0  0
 20 21  2  0  0  0  0
 20 23  1  0  0  0  0
 21 22  1  0  0  0  0
 22 24  1  0  0  0  0
 25 28  1  0  0  0  0
 26 27  1  0  0  0  0
 28 29  1  0  0  0  0
 29 30  1  0  0  0  0
 29 33  2  0  0  0  0
 30 31  2  0  0  0  0
 30 34  1  0  0  0  0
 31 32  1  0  0  0  0
 32 33  1  0  0  0  0
 32 39  1  0  0  0  0
 34 35  2  0  0  0  0
 34 36  1  0  0  0  0
 36 37  1  0  0  0  0
 37 38  1  0  0  0  0
 39 40  1  0  0  0  0
 40 41  1  0  0  0  0
 40 42  2  0  0  0  0
 41 43  1  0  0  0  0
 43 44  1  0  0  0  0
M  END
$$$$
20220309-structures drawed for LXR-18292-203-better than 18292(68).sdf
  MOE2020           2D

 39 43  0  0  1  0  0  0  0  0999 V2000
   -2.0380    2.0270    0.0000 C   0  0  0  0  0  0  0  0  0  0  0  0
   -2.0380    1.2020    0.0000 C   0  0  0  0  0  0  0  0  0  0  0  0
   -1.3230    0.7900    0.0000 C   0  0  0  0  0  0  0  0  0  0  0  0
   -0.6090    1.2020    0.0000 C   0  0  0  0  0  0  0  0  0  0  0  0
   -0.6090    2.0270    0.0000 C   0  0  0  0  0  0  0  0  0  0  0  0
   -1.3230    2.4400    0.0000 C   0  0  0  0  0  0  0  0  0  0  0  0
    0.1060    0.7900    0.0000 C   0  0  1  0  0  0  0  0  0  0  0  0
    0.8200    1.2020    0.0000 C   0  0  1  0  0  0  0  0  0  0  0  0
    0.8200    2.0270    0.0000 C   0  0  1  0  0  0  0  0  0  0  0  0
    0.1060    2.4400    0.0000 C   0  0  0  0  0  0  0  0  0  0  0  0
    1.7240    1.8560    0.0000 N   0  0  0  0  0  0  0  0  0  0  0  0
    1.1890    0.1600    0.0000 C   0  0  0  0  0  0  0  0  0  0  0  0
   -0.3070    0.0750    0.0000 C   0  0  0  0  0  0  0  0  0  0  0  0
    1.8840    0.5660    0.0000 C   0  0  0  0  0  0  0  0  0  0  0  0
    1.5320    0.7920    0.0000 C   0  0  0  0  0  0  0  0  0  0  0  0
    2.3240    2.4180    0.0000 C   0  0  1  0  0  0  0  0  0  0  0  0
    3.1110    2.1800    0.0000 C   0  0  0  0  0  0  0  0  0  0  0  0
    3.2980    1.3760    0.0000 C   0  0  0  0  0  0  0  0  0  0  0  0
    4.0880    1.1380    0.0000 C   0  0  0  0  0  0  0  0  0  0  0  0
    4.6900    1.7010    0.0000 C   0  0  0  0  0  0  0  0  0  0  0  0
    4.5020    2.5050    0.0000 C   0  0  0  0  0  0  0  0  0  0  0  0
    3.7120    2.7440    0.0000 C   0  0  0  0  0  0  0  0  0  0  0  0
    5.4770    1.4630    0.0000 F   0  0  0  0  0  0  0  0  0  0  0  0
    3.5250    3.5470    0.0000 Cl  0  0  0  0  0  0  0  0  0  0  0  0
   -2.7500    0.7910    0.0000 N   0  0  0  0  0  0  0  0  0  0  0  0
    2.1360    3.2210    0.0000 C   0  0  0  0  0  0  0  0  0  0  0  0
    2.7380    3.7860    0.0000 C   0  0  0  0  0  0  0  0  0  0  0  0
   -3.4640    1.2030    0.0000 C   0  0  0  0  0  0  0  0  0  0  0  0
   -4.1760    0.7920    0.0000 C   0  0  0  0  0  0  0  0  0  0  0  0
   -4.9270    1.1260    0.0000 C   0  0  0  0  0  0  0  0  0  0  0  0
   -5.4770    0.5150    0.0000 N   0  0  0  0  0  0  0  0  0  0  0  0
   -5.0660   -0.1970    0.0000 N   0  0  0  0  0  0  0  0  0  0  0  0
   -4.2620   -0.0260    0.0000 C   0  0  0  0  0  0  0  0  0  0  0  0
   -5.4010   -0.9480    0.0000 C   0  0  0  0  0  0  0  0  0  0  0  0
   -4.9180   -1.6130    0.0000 C   0  0  0  0  0  0  0  0  0  0  0  0
   -5.2520   -2.3640    0.0000 O   0  0  0  0  0  0  0  0  0  0  0  0
   -4.1000   -1.5280    0.0000 O   0  0  0  0  0  0  0  0  0  0  0  0
   -4.7680   -3.0320    0.0000 C   0  0  0  0  0  0  0  0  0  0  0  0
   -5.1030   -3.7860    0.0000 C   0  0  0  0  0  0  0  0  0  0  0  0
  1  2  2  0  0  0  0
  1  6  1  0  0  0  0
  2  3  1  0  0  0  0
  2 25  1  0  0  0  0
  3  4  2  0  0  0  0
  4  5  1  0  0  0  0
  4  7  1  0  0  0  0
  5  6  2  0  0  0  0
  5 10  1  0  0  0  0
  7  8  1  0  0  0  0
  7 12  1  0  0  0  0
  7 13  1  6  0  0  0
  8  9  1  0  0  0  0
  8 15  1  1  0  0  0
  9 10  1  0  0  0  0
  9 11  1  1  0  0  0
 11 14  1  0  0  0  0
 11 16  1  0  0  0  0
 12 14  1  0  0  0  0
 16 17  1  6  0  0  0
 16 26  1  0  0  0  0
 17 18  1  0  0  0  0
 17 22  2  0  0  0  0
 18 19  2  0  0  0  0
 19 20  1  0  0  0  0
 20 21  2  0  0  0  0
 20 23  1  0  0  0  0
 21 22  1  0  0  0  0
 22 24  1  0  0  0  0
 25 28  1  0  0  0  0
 26 27  1  0  0  0  0
 28 29  1  0  0  0  0
 29 30  1  0  0  0  0
 29 33  2  0  0  0  0
 30 31  2  0  0  0  0
 31 32  1  0  0  0  0
 32 33  1  0  0  0  0
 32 34  1  0  0  0  0
 34 35  1  0  0  0  0
 35 36  1  0  0  0  0
 35 37  2  0  0  0  0
 36 38  1  0  0  0  0
 38 39  1  0  0  0  0
M  END
$$$$
20220309-structures drawed for LXR-18292-203-better than 18292(68).sdf
  MOE2020           2D

 37 41  0  0  1  0  0  0  0  0999 V2000
   -2.0380    1.3170    0.0000 C   0  0  0  0  0  0  0  0  0  0  0  0
   -2.0380    0.4920    0.0000 C   0  0  0  0  0  0  0  0  0  0  0  0
   -1.3230    0.0790    0.0000 C   0  0  0  0  0  0  0  0  0  0  0  0
   -0.6090    0.4920    0.0000 C   0  0  0  0  0  0  0  0  0  0  0  0
   -0.6090    1.3170    0.0000 C   0  0  0  0  0  0  0  0  0  0  0  0
   -1.3230    1.7290    0.0000 C   0  0  0  0  0  0  0  0  0  0  0  0
    0.1060    0.0790    0.0000 C   0  0  1  0  0  0  0  0  0  0  0  0
    0.8200    0.4920    0.0000 C   0  0  1  0  0  0  0  0  0  0  0  0
    0.8200    1.3170    0.0000 C   0  0  1  0  0  0  0  0  0  0  0  0
    0.1060    1.7290    0.0000 C   0  0  0  0  0  0  0  0  0  0  0  0
    1.7240    1.1450    0.0000 N   0  0  0  0  0  0  0  0  0  0  0  0
    1.1890   -0.5510    0.0000 C   0  0  0  0  0  0  0  0  0  0  0  0
   -0.3070   -0.6350    0.0000 C   0  0  0  0  0  0  0  0  0  0  0  0
    1.8840   -0.1440    0.0000 C   0  0  0  0  0  0  0  0  0  0  0  0
    1.5320    0.0810    0.0000 C   0  0  0  0  0  0  0  0  0  0  0  0
    2.3240    1.7070    0.0000 C   0  0  1  0  0  0  0  0  0  0  0  0
    3.1110    1.4690    0.0000 C   0  0  0  0  0  0  0  0  0  0  0  0
    3.2980    0.6660    0.0000 C   0  0  0  0  0  0  0  0  0  0  0  0
    4.0880    0.4270    0.0000 C   0  0  0  0  0  0  0  0  0  0  0  0
    4.6900    0.9910    0.0000 C   0  0  0  0  0  0  0  0  0  0  0  0
    4.5020    1.7940    0.0000 C   0  0  0  0  0  0  0  0  0  0  0  0
    3.7120    2.0330    0.0000 C   0  0  0  0  0  0  0  0  0  0  0  0
    5.4770    0.7520    0.0000 F   0  0  0  0  0  0  0  0  0  0  0  0
    3.5250    2.8360    0.0000 Cl  0  0  0  0  0  0  0  0  0  0  0  0
   -2.7500    0.0800    0.0000 N   0  0  0  0  0  0  0  0  0  0  0  0
    2.1360    2.5100    0.0000 C   0  0  0  0  0  0  0  0  0  0  0  0
    2.7380    3.0750    0.0000 C   0  0  0  0  0  0  0  0  0  0  0  0
   -3.4640    0.4920    0.0000 C   0  0  0  0  0  0  0  0  0  0  0  0
   -4.1760    0.0810    0.0000 C   0  0  0  0  0  0  0  0  0  0  0  0
   -4.9270    0.4150    0.0000 C   0  0  0  0  0  0  0  0  0  0  0  0
   -5.4770   -0.1960    0.0000 N   0  0  0  0  0  0  0  0  0  0  0  0
   -5.0660   -0.9080    0.0000 N   0  0  0  0  0  0  0  0  0  0  0  0
   -4.2620   -0.7370    0.0000 C   0  0  0  0  0  0  0  0  0  0  0  0
   -5.4010   -1.6590    0.0000 C   0  0  0  0  0  0  0  0  0  0  0  0
   -4.9180   -2.3240    0.0000 C   0  0  0  0  0  0  0  0  0  0  0  0
   -5.2520   -3.0750    0.0000 O   0  0  0  0  0  0  0  0  0  0  0  0
   -4.1000   -2.2380    0.0000 O   0  0  0  0  0  0  0  0  0  0  0  0
  1  2  2  0  0  0  0
  1  6  1  0  0  0  0
  2  3  1  0  0  0  0
  2 25  1  0  0  0  0
  3  4  2  0  0  0  0
  4  5  1  0  0  0  0
  4  7  1  0  0  0  0
  5  6  2  0  0  0  0
  5 10  1  0  0  0  0
  7  8  1  0  0  0  0
  7 12  1  0  0  0  0
  7 13  1  6  0  0  0
  8  9  1  0  0  0  0
  8 15  1  1  0  0  0
  9 10  1  0  0  0  0
  9 11  1  1  0  0  0
 11 14  1  0  0  0  0
 11 16  1  0  0  0  0
 12 14  1  0  0  0  0
 16 17  1  6  0  0  0
 16 26  1  0  0  0  0
 17 18  1  0  0  0  0
 17 22  2  0  0  0  0
 18 19  2  0  0  0  0
 19 20  1  0  0  0  0
 20 21  2  0  0  0  0
 20 23  1  0  0  0  0
 21 22  1  0  0  0  0
 22 24  1  0  0  0  0
 25 28  1  0  0  0  0
 26 27  1  0  0  0  0
 28 29  1  0  0  0  0
 29 30  1  0  0  0  0
 29 33  2  0  0  0  0
 30 31  2  0  0  0  0
 31 32  1  0  0  0  0
 32 33  1  0  0  0  0
 32 34  1  0  0  0  0
 34 35  1  0  0  0  0
 35 36  1  0  0  0  0
 35 37  2  0  0  0  0
M  END
$$$$
20220309-structures drawed for LXR-18292-203-better than 18292(68).sdf
  MOE2020           2D

 40 44  0  0  1  0  0  0  0  0999 V2000
   -1.8320    1.3230    0.0000 C   0  0  0  0  0  0  0  0  0  0  0  0
   -1.8320    0.4980    0.0000 C   0  0  0  0  0  0  0  0  0  0  0  0
   -1.1180    0.0850    0.0000 C   0  0  0  0  0  0  0  0  0  0  0  0
   -0.4030    0.4980    0.0000 C   0  0  0  0  0  0  0  0  0  0  0  0
   -0.4030    1.3230    0.0000 C   0  0  0  0  0  0  0  0  0  0  0  0
   -1.1180    1.7350    0.0000 C   0  0  0  0  0  0  0  0  0  0  0  0
    0.3110    0.0850    0.0000 C   0  0  1  0  0  0  0  0  0  0  0  0
    1.0260    0.4980    0.0000 C   0  0  1  0  0  0  0  0  0  0  0  0
    1.0260    1.3230    0.0000 C   0  0  1  0  0  0  0  0  0  0  0  0
    0.3110    1.7350    0.0000 C   0  0  0  0  0  0  0  0  0  0  0  0
    1.9290    1.1520    0.0000 N   0  0  0  0  0  0  0  0  0  0  0  0
    1.3950   -0.5450    0.0000 C   0  0  0  0  0  0  0  0  0  0  0  0
   -0.1010   -0.6290    0.0000 C   0  0  0  0  0  0  0  0  0  0  0  0
    2.0890   -0.1380    0.0000 C   0  0  0  0  0  0  0  0  0  0  0  0
    1.7380    0.0870    0.0000 C   0  0  0  0  0  0  0  0  0  0  0  0
    2.5290    1.7140    0.0000 C   0  0  1  0  0  0  0  0  0  0  0  0
    3.3160    1.4750    0.0000 C   0  0  0  0  0  0  0  0  0  0  0  0
    3.5040    0.6720    0.0000 C   0  0  0  0  0  0  0  0  0  0  0  0
    4.2930    0.4330    0.0000 C   0  0  0  0  0  0  0  0  0  0  0  0
    4.8950    0.9970    0.0000 C   0  0  0  0  0  0  0  0  0  0  0  0
    4.7070    1.8010    0.0000 C   0  0  0  0  0  0  0  0  0  0  0  0
    3.9180    2.0400    0.0000 C   0  0  0  0  0  0  0  0  0  0  0  0
    5.6820    0.7580    0.0000 F   0  0  0  0  0  0  0  0  0  0  0  0
    3.7300    2.8430    0.0000 Cl  0  0  0  0  0  0  0  0  0  0  0  0
   -2.5440    0.0860    0.0000 N   0  0  0  0  0  0  0  0  0  0  0  0
    2.3420    2.5170    0.0000 C   0  0  0  0  0  0  0  0  0  0  0  0
    2.9430    3.0810    0.0000 C   0  0  0  0  0  0  0  0  0  0  0  0
   -3.2580    0.4980    0.0000 C   0  0  0  0  0  0  0  0  0  0  0  0
   -3.9730    0.0860    0.0000 C   0  0  0  0  0  0  0  0  0  0  0  0
   -4.7270    0.4210    0.0000 C   0  0  0  0  0  0  0  0  0  0  0  0
   -5.2790   -0.1920    0.0000 N   0  0  0  0  0  0  0  0  0  0  0  0
   -4.8660   -0.9060    0.0000 N   0  0  0  0  0  0  0  0  0  0  0  0
   -4.0590   -0.7340    0.0000 C   0  0  0  0  0  0  0  0  0  0  0  0
   -4.8980    1.2280    0.0000 C   0  0  0  0  0  0  0  0  0  0  0  0
   -4.2850    1.7800    0.0000 O   0  0  0  0  0  0  0  0  0  0  0  0
   -5.6820    1.4840    0.0000 O   0  0  0  0  0  0  0  0  0  0  0  0
   -5.2010   -1.6600    0.0000 C   0  0  0  0  0  0  0  0  0  0  0  0
   -4.7160   -2.3270    0.0000 C   0  0  0  0  0  0  0  0  0  0  0  0
   -5.0520   -3.0810    0.0000 O   0  0  0  0  0  0  0  0  0  0  0  0
   -3.8960   -2.2410    0.0000 O   0  0  0  0  0  0  0  0  0  0  0  0
  1  2  2  0  0  0  0
  1  6  1  0  0  0  0
  2  3  1  0  0  0  0
  2 25  1  0  0  0  0
  3  4  2  0  0  0  0
  4  5  1  0  0  0  0
  4  7  1  0  0  0  0
  5  6  2  0  0  0  0
  5 10  1  0  0  0  0
  7  8  1  0  0  0  0
  7 12  1  0  0  0  0
  7 13  1  6  0  0  0
  8  9  1  0  0  0  0
  8 15  1  1  0  0  0
  9 10  1  0  0  0  0
  9 11  1  1  0  0  0
 11 14  1  0  0  0  0
 11 16  1  0  0  0  0
 12 14  1  0  0  0  0
 16 17  1  6  0  0  0
 16 26  1  0  0  0  0
 17 18  1  0  0  0  0
 17 22  2  0  0  0  0
 18 19  2  0  0  0  0
 19 20  1  0  0  0  0
 20 21  2  0  0  0  0
 20 23  1  0  0  0  0
 21 22  1  0  0  0  0
 22 24  1  0  0  0  0
 25 28  1  0  0  0  0
 26 27  1  0  0  0  0
 28 29  1  0  0  0  0
 29 30  1  0  0  0  0
 29 33  2  0  0  0  0
 30 31  2  0  0  0  0
 30 34  1  0  0  0  0
 31 32  1  0  0  0  0
 32 33  1  0  0  0  0
 32 37  1  0  0  0  0
 34 35  2  0  0  0  0
 34 36  1  0  0  0  0
 37 38  1  0  0  0  0
 38 39  1  0  0  0  0
 38 40  2  0  0  0  0
M  END
$$$$
20220309-structures drawed for LXR-18292-203-better than 18292(68).sdf
  MOE2020           2D

 44 48  0  0  1  0  0  0  0  0999 V2000
   -0.3270    0.5430    0.0000 C   0  0  0  0  0  0  0  0  0  0  0  0
   -0.3270   -0.2820    0.0000 C   0  0  0  0  0  0  0  0  0  0  0  0
    0.3880   -0.6950    0.0000 C   0  0  0  0  0  0  0  0  0  0  0  0
    1.1020   -0.2820    0.0000 C   0  0  0  0  0  0  0  0  0  0  0  0
    1.1020    0.5430    0.0000 C   0  0  0  0  0  0  0  0  0  0  0  0
    0.3880    0.9550    0.0000 C   0  0  0  0  0  0  0  0  0  0  0  0
    1.8170   -0.6950    0.0000 C   0  0  1  0  0  0  0  0  0  0  0  0
    2.5310   -0.2820    0.0000 C   0  0  1  0  0  0  0  0  0  0  0  0
    2.5310    0.5430    0.0000 C   0  0  1  0  0  0  0  0  0  0  0  0
    1.8170    0.9550    0.0000 C   0  0  0  0  0  0  0  0  0  0  0  0
    3.4350    0.3710    0.0000 N   0  0  0  0  0  0  0  0  0  0  0  0
    2.9000   -1.3250    0.0000 C   0  0  0  0  0  0  0  0  0  0  0  0
    1.4040   -1.4090    0.0000 C   0  0  0  0  0  0  0  0  0  0  0  0
    3.5940   -0.9180    0.0000 C   0  0  0  0  0  0  0  0  0  0  0  0
    3.2430   -0.6930    0.0000 C   0  0  0  0  0  0  0  0  0  0  0  0
    4.0350    0.9330    0.0000 C   0  0  1  0  0  0  0  0  0  0  0  0
    4.8220    0.6950    0.0000 C   0  0  0  0  0  0  0  0  0  0  0  0
    5.0090   -0.1080    0.0000 C   0  0  0  0  0  0  0  0  0  0  0  0
    5.7980   -0.3470    0.0000 C   0  0  0  0  0  0  0  0  0  0  0  0
    6.4010    0.2170    0.0000 C   0  0  0  0  0  0  0  0  0  0  0  0
    6.2130    1.0200    0.0000 C   0  0  0  0  0  0  0  0  0  0  0  0
    5.4230    1.2590    0.0000 C   0  0  0  0  0  0  0  0  0  0  0  0
    7.1880   -0.0220    0.0000 F   0  0  0  0  0  0  0  0  0  0  0  0
    5.2360    2.0620    0.0000 Cl  0  0  0  0  0  0  0  0  0  0  0  0
   -1.0390   -0.6940    0.0000 N   0  0  0  0  0  0  0  0  0  0  0  0
    3.8470    1.7360    0.0000 C   0  0  0  0  0  0  0  0  0  0  0  0
    4.4490    2.3010    0.0000 C   0  0  0  0  0  0  0  0  0  0  0  0
   -1.7510   -0.2830    0.0000 C   0  0  0  0  0  0  0  0  0  0  0  0
   -2.4620   -0.6940    0.0000 C   0  0  0  0  0  0  0  0  0  0  0  0
   -3.2140   -0.3590    0.0000 C   0  0  0  0  0  0  0  0  0  0  0  0
   -3.3530   -1.6830    0.0000 N   0  0  0  0  0  0  0  0  0  0  0  0
   -2.5480   -1.5110    0.0000 C   0  0  0  0  0  0  0  0  0  0  0  0
   -3.3850    0.4450    0.0000 C   0  0  0  0  0  0  0  0  0  0  0  0
   -2.7740    0.9950    0.0000 O   0  0  0  0  0  0  0  0  0  0  0  0
   -4.1670    0.6990    0.0000 O   0  0  0  0  0  0  0  0  0  0  0  0
   -4.7780    0.1490    0.0000 C   0  0  0  0  0  0  0  0  0  0  0  0
   -5.5600    0.4030    0.0000 C   0  0  0  0  0  0  0  0  0  0  0  0
   -4.5820   -0.8850    0.0000 C   0  0  0  0  0  0  0  0  0  0  0  0
   -5.0650   -1.5500    0.0000 C   0  0  0  0  0  0  0  0  0  0  0  0
   -5.8830   -1.4630    0.0000 O   0  0  0  0  0  0  0  0  0  0  0  0
   -4.7310   -2.3010    0.0000 O   0  0  0  0  0  0  0  0  0  0  0  0
   -3.7640   -0.9700    0.0000 N   0  0  0  0  0  0  0  0  0  0  0  0
   -6.3670   -2.1310    0.0000 C   0  0  0  0  0  0  0  0  0  0  0  0
   -7.1880   -2.0440    0.0000 C   0  0  0  0  0  0  0  0  0  0  0  0
  1  2  2  0  0  0  0
  1  6  1  0  0  0  0
  2  3  1  0  0  0  0
  2 25  1  0  0  0  0
  3  4  2  0  0  0  0
  4  5  1  0  0  0  0
  4  7  1  0  0  0  0
  5  6  2  0  0  0  0
  5 10  1  0  0  0  0
  7  8  1  0  0  0  0
  7 12  1  0  0  0  0
  7 13  1  6  0  0  0
  8  9  1  0  0  0  0
  8 15  1  1  0  0  0
  9 10  1  0  0  0  0
  9 11  1  1  0  0  0
 11 14  1  0  0  0  0
 11 16  1  0  0  0  0
 12 14  1  0  0  0  0
 16 17  1  6  0  0  0
 16 26  1  0  0  0  0
 17 18  1  0  0  0  0
 17 22  2  0  0  0  0
 18 19  2  0  0  0  0
 19 20  1  0  0  0  0
 20 21  2  0  0  0  0
 20 23  1  0  0  0  0
 21 22  1  0  0  0  0
 22 24  1  0  0  0  0
 25 28  1  0  0  0  0
 26 27  1  0  0  0  0
 28 29  1  0  0  0  0
 29 30  2  0  0  0  0
 29 32  1  0  0  0  0
 30 33  1  0  0  0  0
 30 42  1  0  0  0  0
 31 32  2  0  0  0  0
 31 42  1  0  0  0  0
 33 34  2  0  0  0  0
 33 35  1  0  0  0  0
 35 36  1  0  0  0  0
 36 37  1  0  0  0  0
 38 39  1  0  0  0  0
 38 42  1  0  0  0  0
 39 40  1  0  0  0  0
 39 41  2  0  0  0  0
 40 43  1  0  0  0  0
 43 44  1  0  0  0  0
M  END
$$$$
20220309-structures drawed for LXR-18292-203-better than 18292(68).sdf
  MOE2020           2D

 42 46  0  0  1  0  0  0  0  0999 V2000
   -0.9790    0.5430    0.0000 C   0  0  0  0  0  0  0  0  0  0  0  0
   -0.9790   -0.2820    0.0000 C   0  0  0  0  0  0  0  0  0  0  0  0
   -0.2650   -0.6950    0.0000 C   0  0  0  0  0  0  0  0  0  0  0  0
    0.4500   -0.2820    0.0000 C   0  0  0  0  0  0  0  0  0  0  0  0
    0.4500    0.5430    0.0000 C   0  0  0  0  0  0  0  0  0  0  0  0
   -0.2650    0.9550    0.0000 C   0  0  0  0  0  0  0  0  0  0  0  0
    1.1640   -0.6950    0.0000 C   0  0  1  0  0  0  0  0  0  0  0  0
    1.8790   -0.2820    0.0000 C   0  0  1  0  0  0  0  0  0  0  0  0
    1.8790    0.5430    0.0000 C   0  0  1  0  0  0  0  0  0  0  0  0
    1.1640    0.9550    0.0000 C   0  0  0  0  0  0  0  0  0  0  0  0
    2.7820    0.3710    0.0000 N   0  0  0  0  0  0  0  0  0  0  0  0
    2.2480   -1.3250    0.0000 C   0  0  0  0  0  0  0  0  0  0  0  0
    0.7520   -1.4090    0.0000 C   0  0  0  0  0  0  0  0  0  0  0  0
    2.9420   -0.9180    0.0000 C   0  0  0  0  0  0  0  0  0  0  0  0
    2.5910   -0.6930    0.0000 C   0  0  0  0  0  0  0  0  0  0  0  0
    3.3820    0.9330    0.0000 C   0  0  1  0  0  0  0  0  0  0  0  0
    4.1690    0.6950    0.0000 C   0  0  0  0  0  0  0  0  0  0  0  0
    4.3560   -0.1080    0.0000 C   0  0  0  0  0  0  0  0  0  0  0  0
    5.1460   -0.3470    0.0000 C   0  0  0  0  0  0  0  0  0  0  0  0
    5.7480    0.2170    0.0000 C   0  0  0  0  0  0  0  0  0  0  0  0
    5.5600    1.0200    0.0000 C   0  0  0  0  0  0  0  0  0  0  0  0
    4.7710    1.2590    0.0000 C   0  0  0  0  0  0  0  0  0  0  0  0
    6.5350   -0.0220    0.0000 F   0  0  0  0  0  0  0  0  0  0  0  0
    4.5830    2.0620    0.0000 Cl  0  0  0  0  0  0  0  0  0  0  0  0
   -1.6910   -0.6940    0.0000 N   0  0  0  0  0  0  0  0  0  0  0  0
    3.1950    1.7360    0.0000 C   0  0  0  0  0  0  0  0  0  0  0  0
    3.7960    2.3010    0.0000 C   0  0  0  0  0  0  0  0  0  0  0  0
   -2.4030   -0.2830    0.0000 C   0  0  0  0  0  0  0  0  0  0  0  0
   -3.1150   -0.6940    0.0000 C   0  0  0  0  0  0  0  0  0  0  0  0
   -3.8670   -0.3590    0.0000 C   0  0  0  0  0  0  0  0  0  0  0  0
   -4.0050   -1.6830    0.0000 N   0  0  0  0  0  0  0  0  0  0  0  0
   -3.2010   -1.5110    0.0000 C   0  0  0  0  0  0  0  0  0  0  0  0
   -4.0370    0.4450    0.0000 C   0  0  0  0  0  0  0  0  0  0  0  0
   -3.4260    0.9950    0.0000 O   0  0  0  0  0  0  0  0  0  0  0  0
   -4.8190    0.6990    0.0000 O   0  0  0  0  0  0  0  0  0  0  0  0
   -5.4300    0.1490    0.0000 C   0  0  0  0  0  0  0  0  0  0  0  0
   -6.2120    0.4030    0.0000 C   0  0  0  0  0  0  0  0  0  0  0  0
   -5.2340   -0.8850    0.0000 C   0  0  0  0  0  0  0  0  0  0  0  0
   -5.7170   -1.5500    0.0000 C   0  0  0  0  0  0  0  0  0  0  0  0
   -6.5350   -1.4630    0.0000 O   0  0  0  0  0  0  0  0  0  0  0  0
   -5.3830   -2.3010    0.0000 O   0  0  0  0  0  0  0  0  0  0  0  0
   -4.4170   -0.9700    0.0000 N   0  0  0  0  0  0  0  0  0  0  0  0
  1  2  2  0  0  0  0
  1  6  1  0  0  0  0
  2  3  1  0  0  0  0
  2 25  1  0  0  0  0
  3  4  2  0  0  0  0
  4  5  1  0  0  0  0
  4  7  1  0  0  0  0
  5  6  2  0  0  0  0
  5 10  1  0  0  0  0
  7  8  1  0  0  0  0
  7 12  1  0  0  0  0
  7 13  1  6  0  0  0
  8  9  1  0  0  0  0
  8 15  1  1  0  0  0
  9 10  1  0  0  0  0
  9 11  1  1  0  0  0
 11 14  1  0  0  0  0
 11 16  1  0  0  0  0
 12 14  1  0  0  0  0
 16 17  1  6  0  0  0
 16 26  1  0  0  0  0
 17 18  1  0  0  0  0
 17 22  2  0  0  0  0
 18 19  2  0  0  0  0
 19 20  1  0  0  0  0
 20 21  2  0  0  0  0
 20 23  1  0  0  0  0
 21 22  1  0  0  0  0
 22 24  1  0  0  0  0
 25 28  1  0  0  0  0
 26 27  1  0  0  0  0
 28 29  1  0  0  0  0
 29 30  2  0  0  0  0
 29 32  1  0  0  0  0
 30 33  1  0  0  0  0
 30 42  1  0  0  0  0
 31 32  2  0  0  0  0
 31 42  1  0  0  0  0
 33 34  2  0  0  0  0
 33 35  1  0  0  0  0
 35 36  1  0  0  0  0
 36 37  1  0  0  0  0
 38 39  1  0  0  0  0
 38 42  1  0  0  0  0
 39 40  1  0  0  0  0
 39 41  2  0  0  0  0
M  END
$$$$
20220309-structures drawed for LXR-18292-203-better than 18292(68).sdf
  MOE2020           2D

 40 44  0  0  1  0  0  0  0  0999 V2000
   -0.9790    0.5430    0.0000 C   0  0  0  0  0  0  0  0  0  0  0  0
   -0.9790   -0.2820    0.0000 C   0  0  0  0  0  0  0  0  0  0  0  0
   -0.2650   -0.6950    0.0000 C   0  0  0  0  0  0  0  0  0  0  0  0
    0.4500   -0.2820    0.0000 C   0  0  0  0  0  0  0  0  0  0  0  0
    0.4500    0.5430    0.0000 C   0  0  0  0  0  0  0  0  0  0  0  0
   -0.2650    0.9550    0.0000 C   0  0  0  0  0  0  0  0  0  0  0  0
    1.1640   -0.6950    0.0000 C   0  0  1  0  0  0  0  0  0  0  0  0
    1.8790   -0.2820    0.0000 C   0  0  1  0  0  0  0  0  0  0  0  0
    1.8790    0.5430    0.0000 C   0  0  1  0  0  0  0  0  0  0  0  0
    1.1640    0.9550    0.0000 C   0  0  0  0  0  0  0  0  0  0  0  0
    2.7820    0.3710    0.0000 N   0  0  0  0  0  0  0  0  0  0  0  0
    2.2480   -1.3250    0.0000 C   0  0  0  0  0  0  0  0  0  0  0  0
    0.7520   -1.4090    0.0000 C   0  0  0  0  0  0  0  0  0  0  0  0
    2.9420   -0.9180    0.0000 C   0  0  0  0  0  0  0  0  0  0  0  0
    2.5910   -0.6930    0.0000 C   0  0  0  0  0  0  0  0  0  0  0  0
    3.3820    0.9330    0.0000 C   0  0  1  0  0  0  0  0  0  0  0  0
    4.1690    0.6950    0.0000 C   0  0  0  0  0  0  0  0  0  0  0  0
    4.3560   -0.1080    0.0000 C   0  0  0  0  0  0  0  0  0  0  0  0
    5.1460   -0.3470    0.0000 C   0  0  0  0  0  0  0  0  0  0  0  0
    5.7480    0.2170    0.0000 C   0  0  0  0  0  0  0  0  0  0  0  0
    5.5600    1.0200    0.0000 C   0  0  0  0  0  0  0  0  0  0  0  0
    4.7710    1.2590    0.0000 C   0  0  0  0  0  0  0  0  0  0  0  0
    6.5350   -0.0220    0.0000 F   0  0  0  0  0  0  0  0  0  0  0  0
    4.5830    2.0620    0.0000 Cl  0  0  0  0  0  0  0  0  0  0  0  0
   -1.6910   -0.6940    0.0000 N   0  0  0  0  0  0  0  0  0  0  0  0
    3.1950    1.7360    0.0000 C   0  0  0  0  0  0  0  0  0  0  0  0
    3.7960    2.3010    0.0000 C   0  0  0  0  0  0  0  0  0  0  0  0
   -2.4030   -0.2830    0.0000 C   0  0  0  0  0  0  0  0  0  0  0  0
   -3.1150   -0.6940    0.0000 C   0  0  0  0  0  0  0  0  0  0  0  0
   -3.8670   -0.3590    0.0000 C   0  0  0  0  0  0  0  0  0  0  0  0
   -4.0050   -1.6830    0.0000 N   0  0  0  0  0  0  0  0  0  0  0  0
   -3.2010   -1.5110    0.0000 C   0  0  0  0  0  0  0  0  0  0  0  0
   -4.0370    0.4450    0.0000 C   0  0  0  0  0  0  0  0  0  0  0  0
   -3.4260    0.9950    0.0000 O   0  0  0  0  0  0  0  0  0  0  0  0
   -4.8190    0.6990    0.0000 O   0  0  0  0  0  0  0  0  0  0  0  0
   -5.2340   -0.8850    0.0000 C   0  0  0  0  0  0  0  0  0  0  0  0
   -5.7170   -1.5500    0.0000 C   0  0  0  0  0  0  0  0  0  0  0  0
   -6.5350   -1.4630    0.0000 O   0  0  0  0  0  0  0  0  0  0  0  0
   -5.3830   -2.3010    0.0000 O   0  0  0  0  0  0  0  0  0  0  0  0
   -4.4170   -0.9700    0.0000 N   0  0  0  0  0  0  0  0  0  0  0  0
  1  2  2  0  0  0  0
  1  6  1  0  0  0  0
  2  3  1  0  0  0  0
  2 25  1  0  0  0  0
  3  4  2  0  0  0  0
  4  5  1  0  0  0  0
  4  7  1  0  0  0  0
  5  6  2  0  0  0  0
  5 10  1  0  0  0  0
  7  8  1  0  0  0  0
  7 12  1  0  0  0  0
  7 13  1  6  0  0  0
  8  9  1  0  0  0  0
  8 15  1  1  0  0  0
  9 10  1  0  0  0  0
  9 11  1  1  0  0  0
 11 14  1  0  0  0  0
 11 16  1  0  0  0  0
 12 14  1  0  0  0  0
 16 17  1  6  0  0  0
 16 26  1  0  0  0  0
 17 18  1  0  0  0  0
 17 22  2  0  0  0  0
 18 19  2  0  0  0  0
 19 20  1  0  0  0  0
 20 21  2  0  0  0  0
 20 23  1  0  0  0  0
 21 22  1  0  0  0  0
 22 24  1  0  0  0  0
 25 28  1  0  0  0  0
 26 27  1  0  0  0  0
 28 29  1  0  0  0  0
 29 30  2  0  0  0  0
 29 32  1  0  0  0  0
 30 33  1  0  0  0  0
 30 40  1  0  0  0  0
 31 32  2  0  0  0  0
 31 40  1  0  0  0  0
 33 34  2  0  0  0  0
 33 35  1  0  0  0  0
 36 37  1  0  0  0  0
 36 40  1  0  0  0  0
 37 38  1  0  0  0  0
 37 39  2  0  0  0  0
M  END
$$$$
20220309-structures drawed for LXR-18292-203-better than 18292(68).sdf
  MOE2020           2D

 40 44  0  0  1  0  0  0  0  0999 V2000
   -0.9790    0.5430    0.0000 C   0  0  0  0  0  0  0  0  0  0  0  0
   -0.9790   -0.2820    0.0000 C   0  0  0  0  0  0  0  0  0  0  0  0
   -0.2650   -0.6950    0.0000 C   0  0  0  0  0  0  0  0  0  0  0  0
    0.4500   -0.2820    0.0000 C   0  0  0  0  0  0  0  0  0  0  0  0
    0.4500    0.5430    0.0000 C   0  0  0  0  0  0  0  0  0  0  0  0
   -0.2650    0.9550    0.0000 C   0  0  0  0  0  0  0  0  0  0  0  0
    1.1640   -0.6950    0.0000 C   0  0  1  0  0  0  0  0  0  0  0  0
    1.8790   -0.2820    0.0000 C   0  0  1  0  0  0  0  0  0  0  0  0
    1.8790    0.5430    0.0000 C   0  0  1  0  0  0  0  0  0  0  0  0
    1.1640    0.9550    0.0000 C   0  0  0  0  0  0  0  0  0  0  0  0
    2.7820    0.3710    0.0000 N   0  0  0  0  0  0  0  0  0  0  0  0
    2.2480   -1.3250    0.0000 C   0  0  0  0  0  0  0  0  0  0  0  0
    0.7520   -1.4090    0.0000 C   0  0  0  0  0  0  0  0  0  0  0  0
    2.9420   -0.9180    0.0000 C   0  0  0  0  0  0  0  0  0  0  0  0
    2.5910   -0.6930    0.0000 C   0  0  0  0  0  0  0  0  0  0  0  0
    3.3820    0.9330    0.0000 C   0  0  1  0  0  0  0  0  0  0  0  0
    4.1690    0.6950    0.0000 C   0  0  0  0  0  0  0  0  0  0  0  0
    4.3560   -0.1080    0.0000 C   0  0  0  0  0  0  0  0  0  0  0  0
    5.1460   -0.3470    0.0000 C   0  0  0  0  0  0  0  0  0  0  0  0
    5.7480    0.2170    0.0000 C   0  0  0  0  0  0  0  0  0  0  0  0
    5.5600    1.0200    0.0000 C   0  0  0  0  0  0  0  0  0  0  0  0
    4.7710    1.2590    0.0000 C   0  0  0  0  0  0  0  0  0  0  0  0
    6.5350   -0.0220    0.0000 F   0  0  0  0  0  0  0  0  0  0  0  0
    4.5830    2.0620    0.0000 Cl  0  0  0  0  0  0  0  0  0  0  0  0
   -1.6910   -0.6940    0.0000 N   0  0  0  0  0  0  0  0  0  0  0  0
    3.1950    1.7360    0.0000 C   0  0  0  0  0  0  0  0  0  0  0  0
    3.7960    2.3010    0.0000 C   0  0  0  0  0  0  0  0  0  0  0  0
   -2.4030   -0.2830    0.0000 C   0  0  0  0  0  0  0  0  0  0  0  0
   -3.1150   -0.6940    0.0000 C   0  0  0  0  0  0  0  0  0  0  0  0
   -3.8670   -0.3590    0.0000 C   0  0  0  0  0  0  0  0  0  0  0  0
   -4.0050   -1.6830    0.0000 N   0  0  0  0  0  0  0  0  0  0  0  0
   -3.2010   -1.5110    0.0000 C   0  0  0  0  0  0  0  0  0  0  0  0
   -4.0370    0.4450    0.0000 C   0  0  0  0  0  0  0  0  0  0  0  0
   -3.4260    0.9950    0.0000 O   0  0  0  0  0  0  0  0  0  0  0  0
   -4.8190    0.6990    0.0000 N   0  0  0  0  0  0  0  0  0  0  0  0
   -5.2340   -0.8850    0.0000 C   0  0  0  0  0  0  0  0  0  0  0  0
   -5.7170   -1.5500    0.0000 C   0  0  0  0  0  0  0  0  0  0  0  0
   -6.5350   -1.4630    0.0000 N   0  0  0  0  0  0  0  0  0  0  0  0
   -5.3830   -2.3010    0.0000 O   0  0  0  0  0  0  0  0  0  0  0  0
   -4.4170   -0.9700    0.0000 N   0  0  0  0  0  0  0  0  0  0  0  0
  1  2  2  0  0  0  0
  1  6  1  0  0  0  0
  2  3  1  0  0  0  0
  2 25  1  0  0  0  0
  3  4  2  0  0  0  0
  4  5  1  0  0  0  0
  4  7  1  0  0  0  0
  5  6  2  0  0  0  0
  5 10  1  0  0  0  0
  7  8  1  0  0  0  0
  7 12  1  0  0  0  0
  7 13  1  6  0  0  0
  8  9  1  0  0  0  0
  8 15  1  1  0  0  0
  9 10  1  0  0  0  0
  9 11  1  1  0  0  0
 11 14  1  0  0  0  0
 11 16  1  0  0  0  0
 12 14  1  0  0  0  0
 16 17  1  6  0  0  0
 16 26  1  0  0  0  0
 17 18  1  0  0  0  0
 17 22  2  0  0  0  0
 18 19  2  0  0  0  0
 19 20  1  0  0  0  0
 20 21  2  0  0  0  0
 20 23  1  0  0  0  0
 21 22  1  0  0  0  0
 22 24  1  0  0  0  0
 25 28  1  0  0  0  0
 26 27  1  0  0  0  0
 28 29  1  0  0  0  0
 29 30  2  0  0  0  0
 29 32  1  0  0  0  0
 30 33  1  0  0  0  0
 30 40  1  0  0  0  0
 31 32  2  0  0  0  0
 31 40  1  0  0  0  0
 33 34  2  0  0  0  0
 33 35  1  0  0  0  0
 36 37  1  0  0  0  0
 36 40  1  0  0  0  0
 37 38  1  0  0  0  0
 37 39  2  0  0  0  0
M  END
$$$$
20220309-structures drawed for LXR-18292-203-better than 18292(68).sdf
  MOE2020           2D

 37 41  0  0  1  0  0  0  0  0999 V2000
   -2.0380    1.3170    0.0000 C   0  0  0  0  0  0  0  0  0  0  0  0
   -2.0380    0.4920    0.0000 C   0  0  0  0  0  0  0  0  0  0  0  0
   -1.3230    0.0790    0.0000 C   0  0  0  0  0  0  0  0  0  0  0  0
   -0.6090    0.4920    0.0000 C   0  0  0  0  0  0  0  0  0  0  0  0
   -0.6090    1.3170    0.0000 C   0  0  0  0  0  0  0  0  0  0  0  0
   -1.3230    1.7290    0.0000 C   0  0  0  0  0  0  0  0  0  0  0  0
    0.1060    0.0790    0.0000 C   0  0  1  0  0  0  0  0  0  0  0  0
    0.8200    0.4920    0.0000 C   0  0  1  0  0  0  0  0  0  0  0  0
    0.8200    1.3170    0.0000 C   0  0  1  0  0  0  0  0  0  0  0  0
    0.1060    1.7290    0.0000 C   0  0  0  0  0  0  0  0  0  0  0  0
    1.7240    1.1450    0.0000 N   0  0  0  0  0  0  0  0  0  0  0  0
    1.1890   -0.5510    0.0000 C   0  0  0  0  0  0  0  0  0  0  0  0
   -0.3070   -0.6350    0.0000 C   0  0  0  0  0  0  0  0  0  0  0  0
    1.8840   -0.1440    0.0000 C   0  0  0  0  0  0  0  0  0  0  0  0
    1.5320    0.0810    0.0000 C   0  0  0  0  0  0  0  0  0  0  0  0
    2.3240    1.7070    0.0000 C   0  0  1  0  0  0  0  0  0  0  0  0
    3.1110    1.4690    0.0000 C   0  0  0  0  0  0  0  0  0  0  0  0
    3.2980    0.6660    0.0000 C   0  0  0  0  0  0  0  0  0  0  0  0
    4.0880    0.4270    0.0000 C   0  0  0  0  0  0  0  0  0  0  0  0
    4.6900    0.9910    0.0000 C   0  0  0  0  0  0  0  0  0  0  0  0
    4.5020    1.7940    0.0000 C   0  0  0  0  0  0  0  0  0  0  0  0
    3.7120    2.0330    0.0000 C   0  0  0  0  0  0  0  0  0  0  0  0
    5.4770    0.7520    0.0000 F   0  0  0  0  0  0  0  0  0  0  0  0
    3.5250    2.8360    0.0000 Cl  0  0  0  0  0  0  0  0  0  0  0  0
   -2.7500    0.0800    0.0000 N   0  0  0  0  0  0  0  0  0  0  0  0
    2.1360    2.5100    0.0000 C   0  0  0  0  0  0  0  0  0  0  0  0
    2.7380    3.0750    0.0000 C   0  0  0  0  0  0  0  0  0  0  0  0
   -3.4640    0.4920    0.0000 C   0  0  0  0  0  0  0  0  0  0  0  0
   -4.1760    0.0810    0.0000 C   0  0  0  0  0  0  0  0  0  0  0  0
   -4.9270    0.4150    0.0000 C   0  0  0  0  0  0  0  0  0  0  0  0
   -5.4770   -0.1960    0.0000 N   0  0  0  0  0  0  0  0  0  0  0  0
   -5.0660   -0.9080    0.0000 N   0  0  0  0  0  0  0  0  0  0  0  0
   -4.2620   -0.7370    0.0000 C   0  0  0  0  0  0  0  0  0  0  0  0
   -5.4010   -1.6590    0.0000 C   0  0  0  0  0  0  0  0  0  0  0  0
   -4.9180   -2.3240    0.0000 C   0  0  0  0  0  0  0  0  0  0  0  0
   -5.2520   -3.0750    0.0000 N   0  0  0  0  0  0  0  0  0  0  0  0
   -4.1000   -2.2380    0.0000 O   0  0  0  0  0  0  0  0  0  0  0  0
  1  2  2  0  0  0  0
  1  6  1  0  0  0  0
  2  3  1  0  0  0  0
  2 25  1  0  0  0  0
  3  4  2  0  0  0  0
  4  5  1  0  0  0  0
  4  7  1  0  0  0  0
  5  6  2  0  0  0  0
  5 10  1  0  0  0  0
  7  8  1  0  0  0  0
  7 12  1  0  0  0  0
  7 13  1  6  0  0  0
  8  9  1  0  0  0  0
  8 15  1  1  0  0  0
  9 10  1  0  0  0  0
  9 11  1  1  0  0  0
 11 14  1  0  0  0  0
 11 16  1  0  0  0  0
 12 14  1  0  0  0  0
 16 17  1  6  0  0  0
 16 26  1  0  0  0  0
 17 18  1  0  0  0  0
 17 22  2  0  0  0  0
 18 19  2  0  0  0  0
 19 20  1  0  0  0  0
 20 21  2  0  0  0  0
 20 23  1  0  0  0  0
 21 22  1  0  0  0  0
 22 24  1  0  0  0  0
 25 28  1  0  0  0  0
 26 27  1  0  0  0  0
 28 29  1  0  0  0  0
 29 30  1  0  0  0  0
 29 33  2  0  0  0  0
 30 31  2  0  0  0  0
 31 32  1  0  0  0  0
 32 33  1  0  0  0  0
 32 34  1  0  0  0  0
 34 35  1  0  0  0  0
 35 36  1  0  0  0  0
 35 37  2  0  0  0  0
M  END
$$$$
20220309-structures drawed for LXR-18292-203-better than 18292(68).sdf
  MOE2020           2D

 45 49  0  0  1  0  0  0  0  0999 V2000
   -0.0840    0.7480    0.0000 C   0  0  0  0  0  0  0  0  0  0  0  0
   -0.0840   -0.0770    0.0000 C   0  0  0  0  0  0  0  0  0  0  0  0
    0.6300   -0.4900    0.0000 C   0  0  0  0  0  0  0  0  0  0  0  0
    1.3450   -0.0770    0.0000 C   0  0  0  0  0  0  0  0  0  0  0  0
    1.3450    0.7480    0.0000 C   0  0  0  0  0  0  0  0  0  0  0  0
    0.6300    1.1600    0.0000 C   0  0  0  0  0  0  0  0  0  0  0  0
    2.0590   -0.4900    0.0000 C   0  0  1  0  0  0  0  0  0  0  0  0
    2.7740   -0.0770    0.0000 C   0  0  1  0  0  0  0  0  0  0  0  0
    2.7740    0.7480    0.0000 C   0  0  1  0  0  0  0  0  0  0  0  0
    2.0590    1.1600    0.0000 C   0  0  0  0  0  0  0  0  0  0  0  0
    3.6770    0.5760    0.0000 N   0  0  0  0  0  0  0  0  0  0  0  0
    3.1430   -1.1200    0.0000 C   0  0  0  0  0  0  0  0  0  0  0  0
    1.6470   -1.2040    0.0000 C   0  0  0  0  0  0  0  0  0  0  0  0
    3.8370   -0.7130    0.0000 C   0  0  0  0  0  0  0  0  0  0  0  0
    3.4860   -0.4880    0.0000 C   0  0  0  0  0  0  0  0  0  0  0  0
    4.2770    1.1380    0.0000 C   0  0  1  0  0  0  0  0  0  0  0  0
    5.0640    0.9000    0.0000 C   0  0  0  0  0  0  0  0  0  0  0  0
    5.2520    0.0970    0.0000 C   0  0  0  0  0  0  0  0  0  0  0  0
    6.0410   -0.1420    0.0000 C   0  0  0  0  0  0  0  0  0  0  0  0
    6.6430    0.4220    0.0000 C   0  0  0  0  0  0  0  0  0  0  0  0
    6.4550    1.2260    0.0000 C   0  0  0  0  0  0  0  0  0  0  0  0
    5.6660    1.4640    0.0000 C   0  0  0  0  0  0  0  0  0  0  0  0
    7.4300    0.1830    0.0000 F   0  0  0  0  0  0  0  0  0  0  0  0
    5.4780    2.2680    0.0000 Cl  0  0  0  0  0  0  0  0  0  0  0  0
   -0.7960   -0.4890    0.0000 N   0  0  0  0  0  0  0  0  0  0  0  0
    4.0900    1.9420    0.0000 C   0  0  0  0  0  0  0  0  0  0  0  0
    4.6910    2.5060    0.0000 C   0  0  0  0  0  0  0  0  0  0  0  0
   -1.5080   -0.0780    0.0000 C   0  0  0  0  0  0  0  0  0  0  0  0
   -2.2200   -0.4890    0.0000 C   0  0  0  0  0  0  0  0  0  0  0  0
   -2.9710   -0.1540    0.0000 C   0  0  0  0  0  0  0  0  0  0  0  0
   -3.1100   -1.4780    0.0000 N   0  0  0  0  0  0  0  0  0  0  0  0
   -2.3060   -1.3060    0.0000 C   0  0  0  0  0  0  0  0  0  0  0  0
   -3.1420    0.6500    0.0000 C   0  0  0  0  0  0  0  0  0  0  0  0
   -2.5310    1.2000    0.0000 O   0  0  0  0  0  0  0  0  0  0  0  0
   -3.9240    0.9040    0.0000 O   0  0  0  0  0  0  0  0  0  0  0  0
   -4.5350    0.3540    0.0000 C   0  0  0  0  0  0  0  0  0  0  0  0
   -5.3170    0.6080    0.0000 C   0  0  0  0  0  0  0  0  0  0  0  0
   -4.3390   -0.6800    0.0000 C   0  0  0  0  0  0  0  0  0  0  0  0
   -4.8220   -1.3450    0.0000 C   0  0  0  0  0  0  0  0  0  0  0  0
   -5.6400   -1.2580    0.0000 C   0  0  0  0  0  0  0  0  0  0  0  0
   -3.5210   -0.7650    0.0000 N   0  0  0  0  0  0  0  0  0  0  0  0
   -6.1250   -1.9260    0.0000 O   0  0  0  0  0  0  0  0  0  0  0  0
   -6.9450   -1.8390    0.0000 C   0  0  0  0  0  0  0  0  0  0  0  0
   -5.9750   -0.5040    0.0000 O   0  0  0  0  0  0  0  0  0  0  0  0
   -7.4300   -2.5060    0.0000 C   0  0  0  0  0  0  0  0  0  0  0  0
  1  2  2  0  0  0  0
  1  6  1  0  0  0  0
  2  3  1  0  0  0  0
  2 25  1  0  0  0  0
  3  4  2  0  0  0  0
  4  5  1  0  0  0  0
  4  7  1  0  0  0  0
  5  6  2  0  0  0  0
  5 10  1  0  0  0  0
  7  8  1  0  0  0  0
  7 12  1  0  0  0  0
  7 13  1  6  0  0  0
  8  9  1  0  0  0  0
  8 15  1  1  0  0  0
  9 10  1  0  0  0  0
  9 11  1  1  0  0  0
 11 14  1  0  0  0  0
 11 16  1  0  0  0  0
 12 14  1  0  0  0  0
 16 17  1  6  0  0  0
 16 26  1  0  0  0  0
 17 18  1  0  0  0  0
 17 22  2  0  0  0  0
 18 19  2  0  0  0  0
 19 20  1  0  0  0  0
 20 21  2  0  0  0  0
 20 23  1  0  0  0  0
 21 22  1  0  0  0  0
 22 24  1  0  0  0  0
 25 28  1  0  0  0  0
 26 27  1  0  0  0  0
 28 29  1  0  0  0  0
 29 30  2  0  0  0  0
 29 32  1  0  0  0  0
 30 33  1  0  0  0  0
 30 41  1  0  0  0  0
 31 32  2  0  0  0  0
 31 41  1  0  0  0  0
 33 34  2  0  0  0  0
 33 35  1  0  0  0  0
 35 36  1  0  0  0  0
 36 37  1  0  0  0  0
 38 39  1  0  0  0  0
 38 41  1  0  0  0  0
 39 40  1  0  0  0  0
 40 42  1  0  0  0  0
 40 44  2  0  0  0  0
 42 43  1  0  0  0  0
 43 45  1  0  0  0  0
M  END
$$$$
20220309-structures drawed for LXR-18292-203-better than 18292(68).sdf
  MOE2020           2D

 40 44  0  0  1  0  0  0  0  0999 V2000
   -1.7400    2.3610    0.0000 C   0  0  0  0  0  0  0  0  0  0  0  0
   -1.7400    1.5360    0.0000 C   0  0  0  0  0  0  0  0  0  0  0  0
   -1.0250    1.1240    0.0000 C   0  0  0  0  0  0  0  0  0  0  0  0
   -0.3110    1.5360    0.0000 C   0  0  0  0  0  0  0  0  0  0  0  0
   -0.3110    2.3610    0.0000 C   0  0  0  0  0  0  0  0  0  0  0  0
   -1.0250    2.7740    0.0000 C   0  0  0  0  0  0  0  0  0  0  0  0
    0.4040    1.1240    0.0000 C   0  0  1  0  0  0  0  0  0  0  0  0
    1.1180    1.5360    0.0000 C   0  0  1  0  0  0  0  0  0  0  0  0
    1.1180    2.3610    0.0000 C   0  0  1  0  0  0  0  0  0  0  0  0
    0.4040    2.7740    0.0000 C   0  0  0  0  0  0  0  0  0  0  0  0
    2.0220    2.1900    0.0000 N   0  0  0  0  0  0  0  0  0  0  0  0
    1.4870    0.4930    0.0000 C   0  0  0  0  0  0  0  0  0  0  0  0
   -0.0090    0.4090    0.0000 C   0  0  0  0  0  0  0  0  0  0  0  0
    2.1810    0.9000    0.0000 C   0  0  0  0  0  0  0  0  0  0  0  0
    1.8300    1.1250    0.0000 C   0  0  0  0  0  0  0  0  0  0  0  0
    2.6210    2.7520    0.0000 C   0  0  1  0  0  0  0  0  0  0  0  0
    3.4090    2.5130    0.0000 C   0  0  0  0  0  0  0  0  0  0  0  0
    3.5960    1.7100    0.0000 C   0  0  0  0  0  0  0  0  0  0  0  0
    4.3850    1.4710    0.0000 C   0  0  0  0  0  0  0  0  0  0  0  0
    4.9880    2.0350    0.0000 C   0  0  0  0  0  0  0  0  0  0  0  0
    4.8000    2.8390    0.0000 C   0  0  0  0  0  0  0  0  0  0  0  0
    4.0100    3.0780    0.0000 C   0  0  0  0  0  0  0  0  0  0  0  0
    5.7750    1.7970    0.0000 F   0  0  0  0  0  0  0  0  0  0  0  0
    3.8230    3.8810    0.0000 Cl  0  0  0  0  0  0  0  0  0  0  0  0
   -2.4520    1.1250    0.0000 N   0  0  0  0  0  0  0  0  0  0  0  0
    2.4340    3.5550    0.0000 C   0  0  0  0  0  0  0  0  0  0  0  0
    3.0360    4.1190    0.0000 C   0  0  0  0  0  0  0  0  0  0  0  0
   -3.1660    1.5370    0.0000 C   0  0  0  0  0  0  0  0  0  0  0  0
   -3.8780    1.1260    0.0000 C   0  0  0  0  0  0  0  0  0  0  0  0
   -4.6290    1.4600    0.0000 C   0  0  0  0  0  0  0  0  0  0  0  0
   -5.1790    0.8480    0.0000 N   0  0  0  0  0  0  0  0  0  0  0  0
   -4.7680    0.1370    0.0000 N   0  0  0  0  0  0  0  0  0  0  0  0
   -3.9640    0.3080    0.0000 C   0  0  0  0  0  0  0  0  0  0  0  0
   -5.1030   -0.6140    0.0000 C   0  0  0  0  0  0  0  0  0  0  0  0
   -4.6200   -1.2790    0.0000 C   0  0  0  0  0  0  0  0  0  0  0  0
   -4.9540   -2.0300    0.0000 C   0  0  0  0  0  0  0  0  0  0  0  0
   -4.4700   -2.6980    0.0000 O   0  0  0  0  0  0  0  0  0  0  0  0
   -4.8050   -3.4520    0.0000 C   0  0  0  0  0  0  0  0  0  0  0  0
   -5.7750   -2.1160    0.0000 O   0  0  0  0  0  0  0  0  0  0  0  0
   -4.3210   -4.1190    0.0000 C   0  0  0  0  0  0  0  0  0  0  0  0
  1  2  2  0  0  0  0
  1  6  1  0  0  0  0
  2  3  1  0  0  0  0
  2 25  1  0  0  0  0
  3  4  2  0  0  0  0
  4  5  1  0  0  0  0
  4  7  1  0  0  0  0
  5  6  2  0  0  0  0
  5 10  1  0  0  0  0
  7  8  1  0  0  0  0
  7 12  1  0  0  0  0
  7 13  1  6  0  0  0
  8  9  1  0  0  0  0
  8 15  1  1  0  0  0
  9 10  1  0  0  0  0
  9 11  1  1  0  0  0
 11 14  1  0  0  0  0
 11 16  1  0  0  0  0
 12 14  1  0  0  0  0
 16 17  1  6  0  0  0
 16 26  1  0  0  0  0
 17 18  1  0  0  0  0
 17 22  2  0  0  0  0
 18 19  2  0  0  0  0
 19 20  1  0  0  0  0
 20 21  2  0  0  0  0
 20 23  1  0  0  0  0
 21 22  1  0  0  0  0
 22 24  1  0  0  0  0
 25 28  1  0  0  0  0
 26 27  1  0  0  0  0
 28 29  1  0  0  0  0
 29 30  1  0  0  0  0
 29 33  2  0  0  0  0
 30 31  2  0  0  0  0
 31 32  1  0  0  0  0
 32 33  1  0  0  0  0
 32 34  1  0  0  0  0
 34 35  1  0  0  0  0
 35 36  1  0  0  0  0
 36 37  1  0  0  0  0
 36 39  2  0  0  0  0
 37 38  1  0  0  0  0
 38 40  1  0  0  0  0
M  END
$$$$
20220309-structures drawed for LXR-18292-203-better than 18292(68).sdf
  MOE2020           2D

 41 45  0  0  1  0  0  0  0  0999 V2000
   -2.0380    2.7380    0.0000 C   0  0  0  0  0  0  0  0  0  0  0  0
   -2.0380    1.9130    0.0000 C   0  0  0  0  0  0  0  0  0  0  0  0
   -1.3230    1.5000    0.0000 C   0  0  0  0  0  0  0  0  0  0  0  0
   -0.6090    1.9130    0.0000 C   0  0  0  0  0  0  0  0  0  0  0  0
   -0.6090    2.7380    0.0000 C   0  0  0  0  0  0  0  0  0  0  0  0
   -1.3230    3.1500    0.0000 C   0  0  0  0  0  0  0  0  0  0  0  0
    0.1060    1.5000    0.0000 C   0  0  1  0  0  0  0  0  0  0  0  0
    0.8200    1.9130    0.0000 C   0  0  1  0  0  0  0  0  0  0  0  0
    0.8200    2.7380    0.0000 C   0  0  1  0  0  0  0  0  0  0  0  0
    0.1060    3.1500    0.0000 C   0  0  0  0  0  0  0  0  0  0  0  0
    1.7240    2.5660    0.0000 N   0  0  0  0  0  0  0  0  0  0  0  0
    1.1890    0.8700    0.0000 C   0  0  0  0  0  0  0  0  0  0  0  0
   -0.3070    0.7860    0.0000 C   0  0  0  0  0  0  0  0  0  0  0  0
    1.8840    1.2770    0.0000 C   0  0  0  0  0  0  0  0  0  0  0  0
    1.5320    1.5020    0.0000 C   0  0  0  0  0  0  0  0  0  0  0  0
    2.3240    3.1280    0.0000 C   0  0  1  0  0  0  0  0  0  0  0  0
    3.1110    2.8900    0.0000 C   0  0  0  0  0  0  0  0  0  0  0  0
    3.2980    2.0870    0.0000 C   0  0  0  0  0  0  0  0  0  0  0  0
    4.0880    1.8480    0.0000 C   0  0  0  0  0  0  0  0  0  0  0  0
    4.6900    2.4120    0.0000 C   0  0  0  0  0  0  0  0  0  0  0  0
    4.5020    3.2160    0.0000 C   0  0  0  0  0  0  0  0  0  0  0  0
    3.7120    3.4540    0.0000 C   0  0  0  0  0  0  0  0  0  0  0  0
    5.4770    2.1730    0.0000 F   0  0  0  0  0  0  0  0  0  0  0  0
    3.5250    4.2580    0.0000 Cl  0  0  0  0  0  0  0  0  0  0  0  0
   -2.7500    1.5010    0.0000 N   0  0  0  0  0  0  0  0  0  0  0  0
    2.1360    3.9320    0.0000 C   0  0  0  0  0  0  0  0  0  0  0  0
    2.7380    4.4960    0.0000 C   0  0  0  0  0  0  0  0  0  0  0  0
   -3.4640    1.9130    0.0000 C   0  0  0  0  0  0  0  0  0  0  0  0
   -4.1760    1.5020    0.0000 C   0  0  0  0  0  0  0  0  0  0  0  0
   -4.9270    1.8360    0.0000 C   0  0  0  0  0  0  0  0  0  0  0  0
   -5.4770    1.2250    0.0000 N   0  0  0  0  0  0  0  0  0  0  0  0
   -5.0660    0.5140    0.0000 N   0  0  0  0  0  0  0  0  0  0  0  0
   -4.2620    0.6840    0.0000 C   0  0  0  0  0  0  0  0  0  0  0  0
   -5.4010   -0.2380    0.0000 C   0  0  0  0  0  0  0  0  0  0  0  0
   -4.9180   -0.9030    0.0000 C   0  0  0  0  0  0  0  0  0  0  0  0
   -5.2520   -1.6540    0.0000 C   0  0  0  0  0  0  0  0  0  0  0  0
   -4.7680   -2.3210    0.0000 C   0  0  0  0  0  0  0  0  0  0  0  0
   -5.1030   -3.0750    0.0000 O   0  0  0  0  0  0  0  0  0  0  0  0
   -4.6190   -3.7430    0.0000 C   0  0  0  0  0  0  0  0  0  0  0  0
   -3.9470   -2.2350    0.0000 O   0  0  0  0  0  0  0  0  0  0  0  0
   -4.9540   -4.4960    0.0000 C   0  0  0  0  0  0  0  0  0  0  0  0
  1  2  2  0  0  0  0
  1  6  1  0  0  0  0
  2  3  1  0  0  0  0
  2 25  1  0  0  0  0
  3  4  2  0  0  0  0
  4  5  1  0  0  0  0
  4  7  1  0  0  0  0
  5  6  2  0  0  0  0
  5 10  1  0  0  0  0
  7  8  1  0  0  0  0
  7 12  1  0  0  0  0
  7 13  1  6  0  0  0
  8  9  1  0  0  0  0
  8 15  1  1  0  0  0
  9 10  1  0  0  0  0
  9 11  1  1  0  0  0
 11 14  1  0  0  0  0
 11 16  1  0  0  0  0
 12 14  1  0  0  0  0
 16 17  1  6  0  0  0
 16 26  1  0  0  0  0
 17 18  1  0  0  0  0
 17 22  2  0  0  0  0
 18 19  2  0  0  0  0
 19 20  1  0  0  0  0
 20 21  2  0  0  0  0
 20 23  1  0  0  0  0
 21 22  1  0  0  0  0
 22 24  1  0  0  0  0
 25 28  1  0  0  0  0
 26 27  1  0  0  0  0
 28 29  1  0  0  0  0
 29 30  1  0  0  0  0
 29 33  2  0  0  0  0
 30 31  2  0  0  0  0
 31 32  1  0  0  0  0
 32 33  1  0  0  0  0
 32 34  1  0  0  0  0
 34 35  1  0  0  0  0
 35 36  1  0  0  0  0
 36 37  1  0  0  0  0
 37 38  1  0  0  0  0
 37 40  2  0  0  0  0
 38 39  1  0  0  0  0
 39 41  1  0  0  0  0
M  END
$$$$
20220309-structures drawed for LXR-18292-203-better than 18292(68).sdf
  MOE2020           2D

 46 50  0  0  1  0  0  0  0  0999 V2000
    0.3260    0.8340    0.0000 C   0  0  0  0  0  0  0  0  0  0  0  0
    0.3260    0.0090    0.0000 C   0  0  0  0  0  0  0  0  0  0  0  0
    1.0410   -0.4030    0.0000 C   0  0  0  0  0  0  0  0  0  0  0  0
    1.7550    0.0090    0.0000 C   0  0  0  0  0  0  0  0  0  0  0  0
    1.7550    0.8340    0.0000 C   0  0  0  0  0  0  0  0  0  0  0  0
    1.0410    1.2470    0.0000 C   0  0  0  0  0  0  0  0  0  0  0  0
    2.4700   -0.4030    0.0000 C   0  0  1  0  0  0  0  0  0  0  0  0
    3.1840    0.0090    0.0000 C   0  0  1  0  0  0  0  0  0  0  0  0
    3.1840    0.8340    0.0000 C   0  0  1  0  0  0  0  0  0  0  0  0
    2.4700    1.2470    0.0000 C   0  0  0  0  0  0  0  0  0  0  0  0
    4.0880    0.6630    0.0000 N   0  0  0  0  0  0  0  0  0  0  0  0
    3.5530   -1.0340    0.0000 C   0  0  0  0  0  0  0  0  0  0  0  0
    2.0570   -1.1180    0.0000 C   0  0  0  0  0  0  0  0  0  0  0  0
    4.2470   -0.6270    0.0000 C   0  0  0  0  0  0  0  0  0  0  0  0
    3.8960   -0.4020    0.0000 C   0  0  0  0  0  0  0  0  0  0  0  0
    4.6870    1.2250    0.0000 C   0  0  1  0  0  0  0  0  0  0  0  0
    5.4740    0.9870    0.0000 C   0  0  0  0  0  0  0  0  0  0  0  0
    5.6620    0.1830    0.0000 C   0  0  0  0  0  0  0  0  0  0  0  0
    6.4510   -0.0560    0.0000 C   0  0  0  0  0  0  0  0  0  0  0  0
    7.0540    0.5080    0.0000 C   0  0  0  0  0  0  0  0  0  0  0  0
    6.8660    1.3120    0.0000 C   0  0  0  0  0  0  0  0  0  0  0  0
    6.0760    1.5510    0.0000 C   0  0  0  0  0  0  0  0  0  0  0  0
    7.8410    0.2700    0.0000 F   0  0  0  0  0  0  0  0  0  0  0  0
    5.8890    2.3540    0.0000 Cl  0  0  0  0  0  0  0  0  0  0  0  0
   -0.3860   -0.4020    0.0000 N   0  0  0  0  0  0  0  0  0  0  0  0
    4.5000    2.0280    0.0000 C   0  0  0  0  0  0  0  0  0  0  0  0
    5.1020    2.5920    0.0000 C   0  0  0  0  0  0  0  0  0  0  0  0
   -1.0980    0.0090    0.0000 C   0  0  0  0  0  0  0  0  0  0  0  0
   -1.8100   -0.4020    0.0000 C   0  0  0  0  0  0  0  0  0  0  0  0
   -2.5610   -0.0680    0.0000 C   0  0  0  0  0  0  0  0  0  0  0  0
   -2.7000   -1.3910    0.0000 N   0  0  0  0  0  0  0  0  0  0  0  0
   -1.8960   -1.2200    0.0000 C   0  0  0  0  0  0  0  0  0  0  0  0
   -2.7320    0.7360    0.0000 C   0  0  0  0  0  0  0  0  0  0  0  0
   -2.1210    1.2860    0.0000 O   0  0  0  0  0  0  0  0  0  0  0  0
   -3.5140    0.9910    0.0000 O   0  0  0  0  0  0  0  0  0  0  0  0
   -4.1250    0.4410    0.0000 C   0  0  0  0  0  0  0  0  0  0  0  0
   -4.9070    0.6940    0.0000 C   0  0  0  0  0  0  0  0  0  0  0  0
   -3.9290   -0.5930    0.0000 C   0  0  0  0  0  0  0  0  0  0  0  0
   -4.4120   -1.2580    0.0000 C   0  0  0  0  0  0  0  0  0  0  0  0
   -5.2300   -1.1720    0.0000 C   0  0  0  0  0  0  0  0  0  0  0  0
   -3.1110   -0.6790    0.0000 N   0  0  0  0  0  0  0  0  0  0  0  0
   -5.7150   -1.8390    0.0000 C   0  0  0  0  0  0  0  0  0  0  0  0
   -6.5350   -1.7530    0.0000 O   0  0  0  0  0  0  0  0  0  0  0  0
   -7.0200   -2.4190    0.0000 C   0  0  0  0  0  0  0  0  0  0  0  0
   -5.3790   -2.5920    0.0000 O   0  0  0  0  0  0  0  0  0  0  0  0
   -7.8410   -2.3330    0.0000 C   0  0  0  0  0  0  0  0  0  0  0  0
  1  2  2  0  0  0  0
  1  6  1  0  0  0  0
  2  3  1  0  0  0  0
  2 25  1  0  0  0  0
  3  4  2  0  0  0  0
  4  5  1  0  0  0  0
  4  7  1  0  0  0  0
  5  6  2  0  0  0  0
  5 10  1  0  0  0  0
  7  8  1  0  0  0  0
  7 12  1  0  0  0  0
  7 13  1  6  0  0  0
  8  9  1  0  0  0  0
  8 15  1  1  0  0  0
  9 10  1  0  0  0  0
  9 11  1  1  0  0  0
 11 14  1  0  0  0  0
 11 16  1  0  0  0  0
 12 14  1  0  0  0  0
 16 17  1  6  0  0  0
 16 26  1  0  0  0  0
 17 18  1  0  0  0  0
 17 22  2  0  0  0  0
 18 19  2  0  0  0  0
 19 20  1  0  0  0  0
 20 21  2  0  0  0  0
 20 23  1  0  0  0  0
 21 22  1  0  0  0  0
 22 24  1  0  0  0  0
 25 28  1  0  0  0  0
 26 27  1  0  0  0  0
 28 29  1  0  0  0  0
 29 30  2  0  0  0  0
 29 32  1  0  0  0  0
 30 33  1  0  0  0  0
 30 41  1  0  0  0  0
 31 32  2  0  0  0  0
 31 41  1  0  0  0  0
 33 34  2  0  0  0  0
 33 35  1  0  0  0  0
 35 36  1  0  0  0  0
 36 37  1  0  0  0  0
 38 39  1  0  0  0  0
 38 41  1  0  0  0  0
 39 40  1  0  0  0  0
 40 42  1  0  0  0  0
 42 43  1  0  0  0  0
 42 45  2  0  0  0  0
 43 44  1  0  0  0  0
 44 46  1  0  0  0  0
M  END
$$$$
20220309-structures drawed for LXR-18292-203-better than 18292(68).sdf
  MOE2020           2D

 45 49  0  0  1  0  0  0  0  0999 V2000
   -1.1330    2.3670    0.0000 C   0  0  0  0  0  0  0  0  0  0  0  0
   -1.1330    1.5420    0.0000 C   0  0  0  0  0  0  0  0  0  0  0  0
   -0.4180    1.1300    0.0000 C   0  0  0  0  0  0  0  0  0  0  0  0
    0.2960    1.5420    0.0000 C   0  0  0  0  0  0  0  0  0  0  0  0
    0.2960    2.3670    0.0000 C   0  0  0  0  0  0  0  0  0  0  0  0
   -0.4180    2.7800    0.0000 C   0  0  0  0  0  0  0  0  0  0  0  0
    1.0100    1.1300    0.0000 C   0  0  1  0  0  0  0  0  0  0  0  0
    1.7250    1.5420    0.0000 C   0  0  1  0  0  0  0  0  0  0  0  0
    1.7250    2.3670    0.0000 C   0  0  1  0  0  0  0  0  0  0  0  0
    1.0100    2.7800    0.0000 C   0  0  0  0  0  0  0  0  0  0  0  0
    2.6280    2.1960    0.0000 N   0  0  0  0  0  0  0  0  0  0  0  0
    2.0940    0.4990    0.0000 C   0  0  0  0  0  0  0  0  0  0  0  0
    0.5980    0.4150    0.0000 C   0  0  0  0  0  0  0  0  0  0  0  0
    2.7880    0.9060    0.0000 C   0  0  0  0  0  0  0  0  0  0  0  0
    2.4370    1.1310    0.0000 C   0  0  0  0  0  0  0  0  0  0  0  0
    3.2280    2.7580    0.0000 C   0  0  1  0  0  0  0  0  0  0  0  0
    4.0150    2.5190    0.0000 C   0  0  0  0  0  0  0  0  0  0  0  0
    4.2030    1.7160    0.0000 C   0  0  0  0  0  0  0  0  0  0  0  0
    4.9920    1.4770    0.0000 C   0  0  0  0  0  0  0  0  0  0  0  0
    5.5940    2.0410    0.0000 C   0  0  0  0  0  0  0  0  0  0  0  0
    5.4060    2.8450    0.0000 C   0  0  0  0  0  0  0  0  0  0  0  0
    4.6170    3.0840    0.0000 C   0  0  0  0  0  0  0  0  0  0  0  0
    6.3810    1.8030    0.0000 F   0  0  0  0  0  0  0  0  0  0  0  0
    4.4300    3.8870    0.0000 Cl  0  0  0  0  0  0  0  0  0  0  0  0
   -1.8450    1.1310    0.0000 N   0  0  0  0  0  0  0  0  0  0  0  0
    3.0410    3.5610    0.0000 C   0  0  0  0  0  0  0  0  0  0  0  0
    3.6420    4.1250    0.0000 C   0  0  0  0  0  0  0  0  0  0  0  0
   -2.5600    1.5430    0.0000 C   0  0  0  0  0  0  0  0  0  0  0  0
   -3.2740    1.1300    0.0000 C   0  0  0  0  0  0  0  0  0  0  0  0
   -4.0280    1.4650    0.0000 C   0  0  0  0  0  0  0  0  0  0  0  0
   -4.5800    0.8520    0.0000 N   0  0  0  0  0  0  0  0  0  0  0  0
   -4.1670    0.1380    0.0000 N   0  0  0  0  0  0  0  0  0  0  0  0
   -3.3600    0.3100    0.0000 C   0  0  0  0  0  0  0  0  0  0  0  0
   -4.1990    2.2720    0.0000 C   0  0  0  0  0  0  0  0  0  0  0  0
   -3.5860    2.8240    0.0000 O   0  0  0  0  0  0  0  0  0  0  0  0
   -4.9840    2.5280    0.0000 O   0  0  0  0  0  0  0  0  0  0  0  0
   -5.5960    1.9760    0.0000 C   0  0  0  0  0  0  0  0  0  0  0  0
   -6.3810    2.2310    0.0000 C   0  0  0  0  0  0  0  0  0  0  0  0
   -4.5020   -0.6160    0.0000 C   0  0  0  0  0  0  0  0  0  0  0  0
   -4.0170   -1.2830    0.0000 C   0  0  0  0  0  0  0  0  0  0  0  0
   -4.3530   -2.0370    0.0000 C   0  0  0  0  0  0  0  0  0  0  0  0
   -3.8680   -2.7040    0.0000 O   0  0  0  0  0  0  0  0  0  0  0  0
   -4.2030   -3.4580    0.0000 C   0  0  0  0  0  0  0  0  0  0  0  0
   -5.1730   -2.1240    0.0000 O   0  0  0  0  0  0  0  0  0  0  0  0
   -3.7180   -4.1250    0.0000 C   0  0  0  0  0  0  0  0  0  0  0  0
  1  2  2  0  0  0  0
  1  6  1  0  0  0  0
  2  3  1  0  0  0  0
  2 25  1  0  0  0  0
  3  4  2  0  0  0  0
  4  5  1  0  0  0  0
  4  7  1  0  0  0  0
  5  6  2  0  0  0  0
  5 10  1  0  0  0  0
  7  8  1  0  0  0  0
  7 12  1  0  0  0  0
  7 13  1  6  0  0  0
  8  9  1  0  0  0  0
  8 15  1  1  0  0  0
  9 10  1  0  0  0  0
  9 11  1  1  0  0  0
 11 14  1  0  0  0  0
 11 16  1  0  0  0  0
 12 14  1  0  0  0  0
 16 17  1  6  0  0  0
 16 26  1  0  0  0  0
 17 18  1  0  0  0  0
 17 22  2  0  0  0  0
 18 19  2  0  0  0  0
 19 20  1  0  0  0  0
 20 21  2  0  0  0  0
 20 23  1  0  0  0  0
 21 22  1  0  0  0  0
 22 24  1  0  0  0  0
 25 28  1  0  0  0  0
 26 27  1  0  0  0  0
 28 29  1  0  0  0  0
 29 30  1  0  0  0  0
 29 33  2  0  0  0  0
 30 31  2  0  0  0  0
 30 34  1  0  0  0  0
 31 32  1  0  0  0  0
 32 33  1  0  0  0  0
 32 39  1  0  0  0  0
 34 35  2  0  0  0  0
 34 36  1  0  0  0  0
 36 37  1  0  0  0  0
 37 38  1  0  0  0  0
 39 40  1  0  0  0  0
 40 41  1  0  0  0  0
 41 42  1  0  0  0  0
 41 44  2  0  0  0  0
 42 43  1  0  0  0  0
 43 45  1  0  0  0  0
M  END
$$$$
20220309-structures drawed for LXR-18292-203-better than 18292(68).sdf
  MOE2020           2D

 46 50  0  0  1  0  0  0  0  0999 V2000
   -1.1330    2.7440    0.0000 C   0  0  0  0  0  0  0  0  0  0  0  0
   -1.1330    1.9190    0.0000 C   0  0  0  0  0  0  0  0  0  0  0  0
   -0.4180    1.5060    0.0000 C   0  0  0  0  0  0  0  0  0  0  0  0
    0.2960    1.9190    0.0000 C   0  0  0  0  0  0  0  0  0  0  0  0
    0.2960    2.7440    0.0000 C   0  0  0  0  0  0  0  0  0  0  0  0
   -0.4180    3.1560    0.0000 C   0  0  0  0  0  0  0  0  0  0  0  0
    1.0100    1.5060    0.0000 C   0  0  1  0  0  0  0  0  0  0  0  0
    1.7250    1.9190    0.0000 C   0  0  1  0  0  0  0  0  0  0  0  0
    1.7250    2.7440    0.0000 C   0  0  1  0  0  0  0  0  0  0  0  0
    1.0100    3.1560    0.0000 C   0  0  0  0  0  0  0  0  0  0  0  0
    2.6280    2.5730    0.0000 N   0  0  0  0  0  0  0  0  0  0  0  0
    2.0940    0.8760    0.0000 C   0  0  0  0  0  0  0  0  0  0  0  0
    0.5980    0.7920    0.0000 C   0  0  0  0  0  0  0  0  0  0  0  0
    2.7880    1.2830    0.0000 C   0  0  0  0  0  0  0  0  0  0  0  0
    2.4370    1.5080    0.0000 C   0  0  0  0  0  0  0  0  0  0  0  0
    3.2280    3.1350    0.0000 C   0  0  1  0  0  0  0  0  0  0  0  0
    4.0150    2.8960    0.0000 C   0  0  0  0  0  0  0  0  0  0  0  0
    4.2030    2.0930    0.0000 C   0  0  0  0  0  0  0  0  0  0  0  0
    4.9920    1.8540    0.0000 C   0  0  0  0  0  0  0  0  0  0  0  0
    5.5940    2.4180    0.0000 C   0  0  0  0  0  0  0  0  0  0  0  0
    5.4060    3.2220    0.0000 C   0  0  0  0  0  0  0  0  0  0  0  0
    4.6170    3.4610    0.0000 C   0  0  0  0  0  0  0  0  0  0  0  0
    6.3810    2.1800    0.0000 F   0  0  0  0  0  0  0  0  0  0  0  0
    4.4300    4.2640    0.0000 Cl  0  0  0  0  0  0  0  0  0  0  0  0
   -1.8450    1.5080    0.0000 N   0  0  0  0  0  0  0  0  0  0  0  0
    3.0410    3.9380    0.0000 C   0  0  0  0  0  0  0  0  0  0  0  0
    3.6420    4.5020    0.0000 C   0  0  0  0  0  0  0  0  0  0  0  0
   -2.5600    1.9200    0.0000 C   0  0  0  0  0  0  0  0  0  0  0  0
   -3.2740    1.5070    0.0000 C   0  0  0  0  0  0  0  0  0  0  0  0
   -4.0280    1.8420    0.0000 C   0  0  0  0  0  0  0  0  0  0  0  0
   -4.5800    1.2290    0.0000 N   0  0  0  0  0  0  0  0  0  0  0  0
   -4.1670    0.5150    0.0000 N   0  0  0  0  0  0  0  0  0  0  0  0
   -3.3600    0.6870    0.0000 C   0  0  0  0  0  0  0  0  0  0  0  0
   -4.1990    2.6500    0.0000 C   0  0  0  0  0  0  0  0  0  0  0  0
   -3.5860    3.2010    0.0000 O   0  0  0  0  0  0  0  0  0  0  0  0
   -4.9840    2.9050    0.0000 O   0  0  0  0  0  0  0  0  0  0  0  0
   -5.5960    2.3530    0.0000 C   0  0  0  0  0  0  0  0  0  0  0  0
   -6.3810    2.6080    0.0000 C   0  0  0  0  0  0  0  0  0  0  0  0
   -4.5020   -0.2390    0.0000 C   0  0  0  0  0  0  0  0  0  0  0  0
   -4.0170   -0.9060    0.0000 C   0  0  0  0  0  0  0  0  0  0  0  0
   -4.3530   -1.6600    0.0000 C   0  0  0  0  0  0  0  0  0  0  0  0
   -3.8680   -2.3280    0.0000 C   0  0  0  0  0  0  0  0  0  0  0  0
   -4.2030   -3.0810    0.0000 O   0  0  0  0  0  0  0  0  0  0  0  0
   -3.0470   -2.2410    0.0000 O   0  0  0  0  0  0  0  0  0  0  0  0
   -3.7180   -3.7480    0.0000 C   0  0  0  0  0  0  0  0  0  0  0  0
   -4.0530   -4.5020    0.0000 C   0  0  0  0  0  0  0  0  0  0  0  0
  1  2  2  0  0  0  0
  1  6  1  0  0  0  0
  2  3  1  0  0  0  0
  2 25  1  0  0  0  0
  3  4  2  0  0  0  0
  4  5  1  0  0  0  0
  4  7  1  0  0  0  0
  5  6  2  0  0  0  0
  5 10  1  0  0  0  0
  7  8  1  0  0  0  0
  7 12  1  0  0  0  0
  7 13  1  6  0  0  0
  8  9  1  0  0  0  0
  8 15  1  1  0  0  0
  9 10  1  0  0  0  0
  9 11  1  1  0  0  0
 11 14  1  0  0  0  0
 11 16  1  0  0  0  0
 12 14  1  0  0  0  0
 16 17  1  6  0  0  0
 16 26  1  0  0  0  0
 17 18  1  0  0  0  0
 17 22  2  0  0  0  0
 18 19  2  0  0  0  0
 19 20  1  0  0  0  0
 20 21  2  0  0  0  0
 20 23  1  0  0  0  0
 21 22  1  0  0  0  0
 22 24  1  0  0  0  0
 25 28  1  0  0  0  0
 26 27  1  0  0  0  0
 28 29  1  0  0  0  0
 29 30  1  0  0  0  0
 29 33  2  0  0  0  0
 30 31  2  0  0  0  0
 30 34  1  0  0  0  0
 31 32  1  0  0  0  0
 32 33  1  0  0  0  0
 32 39  1  0  0  0  0
 34 35  2  0  0  0  0
 34 36  1  0  0  0  0
 36 37  1  0  0  0  0
 37 38  1  0  0  0  0
 39 40  1  0  0  0  0
 40 41  1  0  0  0  0
 41 42  1  0  0  0  0
 42 43  1  0  0  0  0
 42 44  2  0  0  0  0
 43 45  1  0  0  0  0
 45 46  1  0  0  0  0
M  END
$$$$
20220309-structures drawed for LXR-18292-203-better than 18292(68).sdf
  MOE2020           2D

 42 46  0  0  1  0  0  0  0  0999 V2000
   -1.8320    2.0330    0.0000 C   0  0  0  0  0  0  0  0  0  0  0  0
   -1.8320    1.2080    0.0000 C   0  0  0  0  0  0  0  0  0  0  0  0
   -1.1180    0.7960    0.0000 C   0  0  0  0  0  0  0  0  0  0  0  0
   -0.4030    1.2080    0.0000 C   0  0  0  0  0  0  0  0  0  0  0  0
   -0.4030    2.0330    0.0000 C   0  0  0  0  0  0  0  0  0  0  0  0
   -1.1180    2.4460    0.0000 C   0  0  0  0  0  0  0  0  0  0  0  0
    0.3110    0.7960    0.0000 C   0  0  1  0  0  0  0  0  0  0  0  0
    1.0260    1.2080    0.0000 C   0  0  1  0  0  0  0  0  0  0  0  0
    1.0260    2.0330    0.0000 C   0  0  1  0  0  0  0  0  0  0  0  0
    0.3110    2.4460    0.0000 C   0  0  0  0  0  0  0  0  0  0  0  0
    1.9290    1.8620    0.0000 N   0  0  0  0  0  0  0  0  0  0  0  0
    1.3950    0.1660    0.0000 C   0  0  0  0  0  0  0  0  0  0  0  0
   -0.1010    0.0810    0.0000 C   0  0  0  0  0  0  0  0  0  0  0  0
    2.0890    0.5720    0.0000 C   0  0  0  0  0  0  0  0  0  0  0  0
    1.7380    0.7980    0.0000 C   0  0  0  0  0  0  0  0  0  0  0  0
    2.5290    2.4240    0.0000 C   0  0  1  0  0  0  0  0  0  0  0  0
    3.3160    2.1860    0.0000 C   0  0  0  0  0  0  0  0  0  0  0  0
    3.5040    1.3820    0.0000 C   0  0  0  0  0  0  0  0  0  0  0  0
    4.2930    1.1440    0.0000 C   0  0  0  0  0  0  0  0  0  0  0  0
    4.8950    1.7070    0.0000 C   0  0  0  0  0  0  0  0  0  0  0  0
    4.7070    2.5110    0.0000 C   0  0  0  0  0  0  0  0  0  0  0  0
    3.9180    2.7500    0.0000 C   0  0  0  0  0  0  0  0  0  0  0  0
    5.6820    1.4690    0.0000 F   0  0  0  0  0  0  0  0  0  0  0  0
    3.7300    3.5530    0.0000 Cl  0  0  0  0  0  0  0  0  0  0  0  0
   -2.5440    0.7970    0.0000 N   0  0  0  0  0  0  0  0  0  0  0  0
    2.3420    3.2270    0.0000 C   0  0  0  0  0  0  0  0  0  0  0  0
    2.9430    3.7920    0.0000 C   0  0  0  0  0  0  0  0  0  0  0  0
   -3.2580    1.2090    0.0000 C   0  0  0  0  0  0  0  0  0  0  0  0
   -3.9730    0.7960    0.0000 C   0  0  0  0  0  0  0  0  0  0  0  0
   -4.7270    1.1320    0.0000 C   0  0  0  0  0  0  0  0  0  0  0  0
   -5.2790    0.5180    0.0000 N   0  0  0  0  0  0  0  0  0  0  0  0
   -4.8660   -0.1960    0.0000 N   0  0  0  0  0  0  0  0  0  0  0  0
   -4.0590   -0.0240    0.0000 C   0  0  0  0  0  0  0  0  0  0  0  0
   -4.8980    1.9390    0.0000 C   0  0  0  0  0  0  0  0  0  0  0  0
   -4.2850    2.4910    0.0000 O   0  0  0  0  0  0  0  0  0  0  0  0
   -5.6820    2.1940    0.0000 O   0  0  0  0  0  0  0  0  0  0  0  0
   -5.2010   -0.9490    0.0000 C   0  0  0  0  0  0  0  0  0  0  0  0
   -4.7160   -1.6170    0.0000 C   0  0  0  0  0  0  0  0  0  0  0  0
   -5.0520   -2.3710    0.0000 C   0  0  0  0  0  0  0  0  0  0  0  0
   -4.5660   -3.0380    0.0000 C   0  0  0  0  0  0  0  0  0  0  0  0
   -4.9020   -3.7920    0.0000 O   0  0  0  0  0  0  0  0  0  0  0  0
   -3.7460   -2.9520    0.0000 O   0  0  0  0  0  0  0  0  0  0  0  0
  1  2  2  0  0  0  0
  1  6  1  0  0  0  0
  2  3  1  0  0  0  0
  2 25  1  0  0  0  0
  3  4  2  0  0  0  0
  4  5  1  0  0  0  0
  4  7  1  0  0  0  0
  5  6  2  0  0  0  0
  5 10  1  0  0  0  0
  7  8  1  0  0  0  0
  7 12  1  0  0  0  0
  7 13  1  6  0  0  0
  8  9  1  0  0  0  0
  8 15  1  1  0  0  0
  9 10  1  0  0  0  0
  9 11  1  1  0  0  0
 11 14  1  0  0  0  0
 11 16  1  0  0  0  0
 12 14  1  0  0  0  0
 16 17  1  6  0  0  0
 16 26  1  0  0  0  0
 17 18  1  0  0  0  0
 17 22  2  0  0  0  0
 18 19  2  0  0  0  0
 19 20  1  0  0  0  0
 20 21  2  0  0  0  0
 20 23  1  0  0  0  0
 21 22  1  0  0  0  0
 22 24  1  0  0  0  0
 25 28  1  0  0  0  0
 26 27  1  0  0  0  0
 28 29  1  0  0  0  0
 29 30  1  0  0  0  0
 29 33  2  0  0  0  0
 30 31  2  0  0  0  0
 30 34  1  0  0  0  0
 31 32  1  0  0  0  0
 32 33  1  0  0  0  0
 32 37  1  0  0  0  0
 34 35  2  0  0  0  0
 34 36  1  0  0  0  0
 37 38  1  0  0  0  0
 38 39  1  0  0  0  0
 39 40  1  0  0  0  0
 40 41  1  0  0  0  0
 40 42  2  0  0  0  0
M  END
$$$$
20220309-structures drawed for LXR-18292-203-better than 18292(68).sdf
  MOE2020           2D

 41 45  0  0  1  0  0  0  0  0999 V2000
   -0.7370    0.4580    0.0000 C   0  0  0  0  0  0  0  0  0  0  0  0
   -0.7370   -0.3680    0.0000 C   0  0  0  0  0  0  0  0  0  0  0  0
   -0.0220   -0.7800    0.0000 C   0  0  0  0  0  0  0  0  0  0  0  0
    0.6920   -0.3680    0.0000 C   0  0  0  0  0  0  0  0  0  0  0  0
    0.6920    0.4580    0.0000 C   0  0  0  0  0  0  0  0  0  0  0  0
   -0.0220    0.8700    0.0000 C   0  0  0  0  0  0  0  0  0  0  0  0
    1.4060   -0.7800    0.0000 C   0  0  1  0  0  0  0  0  0  0  0  0
    2.1210   -0.3680    0.0000 C   0  0  1  0  0  0  0  0  0  0  0  0
    2.1210    0.4580    0.0000 C   0  0  1  0  0  0  0  0  0  0  0  0
    1.4060    0.8700    0.0000 C   0  0  0  0  0  0  0  0  0  0  0  0
    3.0240    0.2860    0.0000 N   0  0  0  0  0  0  0  0  0  0  0  0
    2.4900   -1.4100    0.0000 C   0  0  0  0  0  0  0  0  0  0  0  0
    0.9940   -1.4940    0.0000 C   0  0  0  0  0  0  0  0  0  0  0  0
    3.1840   -1.0040    0.0000 C   0  0  0  0  0  0  0  0  0  0  0  0
    2.8330   -0.7780    0.0000 C   0  0  0  0  0  0  0  0  0  0  0  0
    3.6240    0.8480    0.0000 C   0  0  1  0  0  0  0  0  0  0  0  0
    4.4120    0.6100    0.0000 C   0  0  0  0  0  0  0  0  0  0  0  0
    4.5990   -0.1930    0.0000 C   0  0  0  0  0  0  0  0  0  0  0  0
    5.3880   -0.4320    0.0000 C   0  0  0  0  0  0  0  0  0  0  0  0
    5.9900    0.1320    0.0000 C   0  0  0  0  0  0  0  0  0  0  0  0
    5.8020    0.9350    0.0000 C   0  0  0  0  0  0  0  0  0  0  0  0
    5.0130    1.1740    0.0000 C   0  0  0  0  0  0  0  0  0  0  0  0
    6.7780   -0.1070    0.0000 F   0  0  0  0  0  0  0  0  0  0  0  0
    4.8260    1.9770    0.0000 Cl  0  0  0  0  0  0  0  0  0  0  0  0
   -1.4490   -0.7790    0.0000 N   0  0  0  0  0  0  0  0  0  0  0  0
    3.4370    1.6510    0.0000 C   0  0  0  0  0  0  0  0  0  0  0  0
    4.0380    2.2160    0.0000 C   0  0  0  0  0  0  0  0  0  0  0  0
   -2.1610   -0.3680    0.0000 C   0  0  0  0  0  0  0  0  0  0  0  0
   -2.8730   -0.7790    0.0000 C   0  0  0  0  0  0  0  0  0  0  0  0
   -3.6240   -0.4440    0.0000 C   0  0  0  0  0  0  0  0  0  0  0  0
   -3.7630   -1.7680    0.0000 N   0  0  0  0  0  0  0  0  0  0  0  0
   -2.9580   -1.5960    0.0000 C   0  0  0  0  0  0  0  0  0  0  0  0
   -3.7950    0.3600    0.0000 C   0  0  0  0  0  0  0  0  0  0  0  0
   -3.1840    0.9100    0.0000 O   0  0  0  0  0  0  0  0  0  0  0  0
   -4.5770    0.6140    0.0000 O   0  0  0  0  0  0  0  0  0  0  0  0
   -4.9920   -0.9700    0.0000 C   0  0  0  0  0  0  0  0  0  0  0  0
   -5.4750   -1.6350    0.0000 C   0  0  0  0  0  0  0  0  0  0  0  0
   -6.2930   -1.5480    0.0000 C   0  0  0  0  0  0  0  0  0  0  0  0
   -4.1740   -1.0560    0.0000 N   0  0  0  0  0  0  0  0  0  0  0  0
   -6.7780   -2.2160    0.0000 O   0  0  0  0  0  0  0  0  0  0  0  0
   -6.6280   -0.7940    0.0000 O   0  0  0  0  0  0  0  0  0  0  0  0
  1  2  2  0  0  0  0
  1  6  1  0  0  0  0
  2  3  1  0  0  0  0
  2 25  1  0  0  0  0
  3  4  2  0  0  0  0
  4  5  1  0  0  0  0
  4  7  1  0  0  0  0
  5  6  2  0  0  0  0
  5 10  1  0  0  0  0
  7  8  1  0  0  0  0
  7 12  1  0  0  0  0
  7 13  1  6  0  0  0
  8  9  1  0  0  0  0
  8 15  1  1  0  0  0
  9 10  1  0  0  0  0
  9 11  1  1  0  0  0
 11 14  1  0  0  0  0
 11 16  1  0  0  0  0
 12 14  1  0  0  0  0
 16 17  1  6  0  0  0
 16 26  1  0  0  0  0
 17 18  1  0  0  0  0
 17 22  2  0  0  0  0
 18 19  2  0  0  0  0
 19 20  1  0  0  0  0
 20 21  2  0  0  0  0
 20 23  1  0  0  0  0
 21 22  1  0  0  0  0
 22 24  1  0  0  0  0
 25 28  1  0  0  0  0
 26 27  1  0  0  0  0
 28 29  1  0  0  0  0
 29 30  2  0  0  0  0
 29 32  1  0  0  0  0
 30 33  1  0  0  0  0
 30 39  1  0  0  0  0
 31 32  2  0  0  0  0
 31 39  1  0  0  0  0
 33 34  2  0  0  0  0
 33 35  1  0  0  0  0
 36 37  1  0  0  0  0
 36 39  1  0  0  0  0
 37 38  1  0  0  0  0
 38 40  1  0  0  0  0
 38 41  2  0  0  0  0
M  END
$$$$
20220309-structures drawed for LXR-18292-203-better than 18292(68).sdf
  MOE2020           2D

 39 43  0  0  1  0  0  0  0  0999 V2000
   -2.0380    2.0270    0.0000 C   0  0  0  0  0  0  0  0  0  0  0  0
   -2.0380    1.2020    0.0000 C   0  0  0  0  0  0  0  0  0  0  0  0
   -1.3230    0.7900    0.0000 C   0  0  0  0  0  0  0  0  0  0  0  0
   -0.6090    1.2020    0.0000 C   0  0  0  0  0  0  0  0  0  0  0  0
   -0.6090    2.0270    0.0000 C   0  0  0  0  0  0  0  0  0  0  0  0
   -1.3230    2.4400    0.0000 C   0  0  0  0  0  0  0  0  0  0  0  0
    0.1060    0.7900    0.0000 C   0  0  1  0  0  0  0  0  0  0  0  0
    0.8200    1.2020    0.0000 C   0  0  1  0  0  0  0  0  0  0  0  0
    0.8200    2.0270    0.0000 C   0  0  1  0  0  0  0  0  0  0  0  0
    0.1060    2.4400    0.0000 C   0  0  0  0  0  0  0  0  0  0  0  0
    1.7240    1.8560    0.0000 N   0  0  0  0  0  0  0  0  0  0  0  0
    1.1890    0.1600    0.0000 C   0  0  0  0  0  0  0  0  0  0  0  0
   -0.3070    0.0750    0.0000 C   0  0  0  0  0  0  0  0  0  0  0  0
    1.8840    0.5660    0.0000 C   0  0  0  0  0  0  0  0  0  0  0  0
    1.5320    0.7920    0.0000 C   0  0  0  0  0  0  0  0  0  0  0  0
    2.3240    2.4180    0.0000 C   0  0  1  0  0  0  0  0  0  0  0  0
    3.1110    2.1800    0.0000 C   0  0  0  0  0  0  0  0  0  0  0  0
    3.2980    1.3760    0.0000 C   0  0  0  0  0  0  0  0  0  0  0  0
    4.0880    1.1380    0.0000 C   0  0  0  0  0  0  0  0  0  0  0  0
    4.6900    1.7010    0.0000 C   0  0  0  0  0  0  0  0  0  0  0  0
    4.5020    2.5050    0.0000 C   0  0  0  0  0  0  0  0  0  0  0  0
    3.7120    2.7440    0.0000 C   0  0  0  0  0  0  0  0  0  0  0  0
    5.4770    1.4630    0.0000 F   0  0  0  0  0  0  0  0  0  0  0  0
    3.5250    3.5470    0.0000 Cl  0  0  0  0  0  0  0  0  0  0  0  0
   -2.7500    0.7910    0.0000 N   0  0  0  0  0  0  0  0  0  0  0  0
    2.1360    3.2210    0.0000 C   0  0  0  0  0  0  0  0  0  0  0  0
    2.7380    3.7860    0.0000 C   0  0  0  0  0  0  0  0  0  0  0  0
   -3.4640    1.2030    0.0000 C   0  0  0  0  0  0  0  0  0  0  0  0
   -4.1760    0.7920    0.0000 C   0  0  0  0  0  0  0  0  0  0  0  0
   -4.9270    1.1260    0.0000 C   0  0  0  0  0  0  0  0  0  0  0  0
   -5.4770    0.5150    0.0000 N   0  0  0  0  0  0  0  0  0  0  0  0
   -5.0660   -0.1970    0.0000 N   0  0  0  0  0  0  0  0  0  0  0  0
   -4.2620   -0.0260    0.0000 C   0  0  0  0  0  0  0  0  0  0  0  0
   -5.4010   -0.9480    0.0000 C   0  0  0  0  0  0  0  0  0  0  0  0
   -4.9180   -1.6130    0.0000 C   0  0  0  0  0  0  0  0  0  0  0  0
   -5.2520   -2.3640    0.0000 C   0  0  0  0  0  0  0  0  0  0  0  0
   -4.7680   -3.0320    0.0000 C   0  0  0  0  0  0  0  0  0  0  0  0
   -5.1030   -3.7860    0.0000 O   0  0  0  0  0  0  0  0  0  0  0  0
   -3.9470   -2.9460    0.0000 O   0  0  0  0  0  0  0  0  0  0  0  0
  1  2  2  0  0  0  0
  1  6  1  0  0  0  0
  2  3  1  0  0  0  0
  2 25  1  0  0  0  0
  3  4  2  0  0  0  0
  4  5  1  0  0  0  0
  4  7  1  0  0  0  0
  5  6  2  0  0  0  0
  5 10  1  0  0  0  0
  7  8  1  0  0  0  0
  7 12  1  0  0  0  0
  7 13  1  6  0  0  0
  8  9  1  0  0  0  0
  8 15  1  1  0  0  0
  9 10  1  0  0  0  0
  9 11  1  1  0  0  0
 11 14  1  0  0  0  0
 11 16  1  0  0  0  0
 12 14  1  0  0  0  0
 16 17  1  6  0  0  0
 16 26  1  0  0  0  0
 17 18  1  0  0  0  0
 17 22  2  0  0  0  0
 18 19  2  0  0  0  0
 19 20  1  0  0  0  0
 20 21  2  0  0  0  0
 20 23  1  0  0  0  0
 21 22  1  0  0  0  0
 22 24  1  0  0  0  0
 25 28  1  0  0  0  0
 26 27  1  0  0  0  0
 28 29  1  0  0  0  0
 29 30  1  0  0  0  0
 29 33  2  0  0  0  0
 30 31  2  0  0  0  0
 31 32  1  0  0  0  0
 32 33  1  0  0  0  0
 32 34  1  0  0  0  0
 34 35  1  0  0  0  0
 35 36  1  0  0  0  0
 36 37  1  0  0  0  0
 37 38  1  0  0  0  0
 37 39  2  0  0  0  0
M  END
$$$$
20220309-structures drawed for LXR-18292-203-better than 18292(68).sdf
  MOE2020           2D

 42 46  0  0  1  0  0  0  0  0999 V2000
   -0.3270    0.8340    0.0000 C   0  0  0  0  0  0  0  0  0  0  0  0
   -0.3270    0.0090    0.0000 C   0  0  0  0  0  0  0  0  0  0  0  0
    0.3880   -0.4030    0.0000 C   0  0  0  0  0  0  0  0  0  0  0  0
    1.1020    0.0090    0.0000 C   0  0  0  0  0  0  0  0  0  0  0  0
    1.1020    0.8340    0.0000 C   0  0  0  0  0  0  0  0  0  0  0  0
    0.3880    1.2470    0.0000 C   0  0  0  0  0  0  0  0  0  0  0  0
    1.8170   -0.4030    0.0000 C   0  0  1  0  0  0  0  0  0  0  0  0
    2.5310    0.0090    0.0000 C   0  0  1  0  0  0  0  0  0  0  0  0
    2.5310    0.8340    0.0000 C   0  0  1  0  0  0  0  0  0  0  0  0
    1.8170    1.2470    0.0000 C   0  0  0  0  0  0  0  0  0  0  0  0
    3.4350    0.6630    0.0000 N   0  0  0  0  0  0  0  0  0  0  0  0
    2.9000   -1.0340    0.0000 C   0  0  0  0  0  0  0  0  0  0  0  0
    1.4040   -1.1180    0.0000 C   0  0  0  0  0  0  0  0  0  0  0  0
    3.5940   -0.6270    0.0000 C   0  0  0  0  0  0  0  0  0  0  0  0
    3.2430   -0.4020    0.0000 C   0  0  0  0  0  0  0  0  0  0  0  0
    4.0350    1.2250    0.0000 C   0  0  1  0  0  0  0  0  0  0  0  0
    4.8220    0.9870    0.0000 C   0  0  0  0  0  0  0  0  0  0  0  0
    5.0090    0.1830    0.0000 C   0  0  0  0  0  0  0  0  0  0  0  0
    5.7980   -0.0560    0.0000 C   0  0  0  0  0  0  0  0  0  0  0  0
    6.4010    0.5080    0.0000 C   0  0  0  0  0  0  0  0  0  0  0  0
    6.2130    1.3120    0.0000 C   0  0  0  0  0  0  0  0  0  0  0  0
    5.4230    1.5510    0.0000 C   0  0  0  0  0  0  0  0  0  0  0  0
    7.1880    0.2700    0.0000 F   0  0  0  0  0  0  0  0  0  0  0  0
    5.2360    2.3540    0.0000 Cl  0  0  0  0  0  0  0  0  0  0  0  0
   -1.0390   -0.4020    0.0000 N   0  0  0  0  0  0  0  0  0  0  0  0
    3.8470    2.0280    0.0000 C   0  0  0  0  0  0  0  0  0  0  0  0
    4.4490    2.5920    0.0000 C   0  0  0  0  0  0  0  0  0  0  0  0
   -1.7510    0.0090    0.0000 C   0  0  0  0  0  0  0  0  0  0  0  0
   -2.4620   -0.4020    0.0000 C   0  0  0  0  0  0  0  0  0  0  0  0
   -3.2140   -0.0680    0.0000 C   0  0  0  0  0  0  0  0  0  0  0  0
   -3.3530   -1.3910    0.0000 N   0  0  0  0  0  0  0  0  0  0  0  0
   -2.5480   -1.2200    0.0000 C   0  0  0  0  0  0  0  0  0  0  0  0
   -3.3850    0.7360    0.0000 C   0  0  0  0  0  0  0  0  0  0  0  0
   -2.7740    1.2860    0.0000 O   0  0  0  0  0  0  0  0  0  0  0  0
   -4.1670    0.9910    0.0000 O   0  0  0  0  0  0  0  0  0  0  0  0
   -4.5820   -0.5930    0.0000 C   0  0  0  0  0  0  0  0  0  0  0  0
   -5.0650   -1.2580    0.0000 C   0  0  0  0  0  0  0  0  0  0  0  0
   -5.8830   -1.1720    0.0000 C   0  0  0  0  0  0  0  0  0  0  0  0
   -3.7640   -0.6790    0.0000 N   0  0  0  0  0  0  0  0  0  0  0  0
   -6.3670   -1.8390    0.0000 C   0  0  0  0  0  0  0  0  0  0  0  0
   -7.1880   -1.7530    0.0000 O   0  0  0  0  0  0  0  0  0  0  0  0
   -6.0320   -2.5920    0.0000 O   0  0  0  0  0  0  0  0  0  0  0  0
  1  2  2  0  0  0  0
  1  6  1  0  0  0  0
  2  3  1  0  0  0  0
  2 25  1  0  0  0  0
  3  4  2  0  0  0  0
  4  5  1  0  0  0  0
  4  7  1  0  0  0  0
  5  6  2  0  0  0  0
  5 10  1  0  0  0  0
  7  8  1  0  0  0  0
  7 12  1  0  0  0  0
  7 13  1  6  0  0  0
  8  9  1  0  0  0  0
  8 15  1  1  0  0  0
  9 10  1  0  0  0  0
  9 11  1  1  0  0  0
 11 14  1  0  0  0  0
 11 16  1  0  0  0  0
 12 14  1  0  0  0  0
 16 17  1  6  0  0  0
 16 26  1  0  0  0  0
 17 18  1  0  0  0  0
 17 22  2  0  0  0  0
 18 19  2  0  0  0  0
 19 20  1  0  0  0  0
 20 21  2  0  0  0  0
 20 23  1  0  0  0  0
 21 22  1  0  0  0  0
 22 24  1  0  0  0  0
 25 28  1  0  0  0  0
 26 27  1  0  0  0  0
 28 29  1  0  0  0  0
 29 30  2  0  0  0  0
 29 32  1  0  0  0  0
 30 33  1  0  0  0  0
 30 39  1  0  0  0  0
 31 32  2  0  0  0  0
 31 39  1  0  0  0  0
 33 34  2  0  0  0  0
 33 35  1  0  0  0  0
 36 37  1  0  0  0  0
 36 39  1  0  0  0  0
 37 38  1  0  0  0  0
 38 40  1  0  0  0  0
 40 41  1  0  0  0  0
 40 42  2  0  0  0  0
M  END
$$$$
20220309-structures drawed for LXR-18292-203-better than 18292(68).sdf
  MOE2020           2D

 41 45  0  0  1  0  0  0  0  0999 V2000
   -1.7370    1.6570    0.0000 C   0  0  0  0  0  0  0  0  0  0  0  0
   -1.7370    0.8320    0.0000 C   0  0  0  0  0  0  0  0  0  0  0  0
   -1.0230    0.4190    0.0000 C   0  0  0  0  0  0  0  0  0  0  0  0
   -0.3080    0.8320    0.0000 C   0  0  0  0  0  0  0  0  0  0  0  0
   -0.3080    1.6570    0.0000 C   0  0  0  0  0  0  0  0  0  0  0  0
   -1.0230    2.0690    0.0000 C   0  0  0  0  0  0  0  0  0  0  0  0
    0.4060    0.4190    0.0000 C   0  0  1  0  0  0  0  0  0  0  0  0
    1.1210    0.8320    0.0000 C   0  0  1  0  0  0  0  0  0  0  0  0
    1.1210    1.6570    0.0000 C   0  0  1  0  0  0  0  0  0  0  0  0
    0.4060    2.0690    0.0000 C   0  0  0  0  0  0  0  0  0  0  0  0
    2.0240    1.4850    0.0000 N   0  0  0  0  0  0  0  0  0  0  0  0
    1.4900   -0.2110    0.0000 C   0  0  0  0  0  0  0  0  0  0  0  0
   -0.0060   -0.2950    0.0000 C   0  0  0  0  0  0  0  0  0  0  0  0
    2.1840    0.1960    0.0000 C   0  0  0  0  0  0  0  0  0  0  0  0
    1.8330    0.4210    0.0000 C   0  0  0  0  0  0  0  0  0  0  0  0
    2.6240    2.0470    0.0000 C   0  0  1  0  0  0  0  0  0  0  0  0
    3.4110    1.8090    0.0000 C   0  0  0  0  0  0  0  0  0  0  0  0
    3.5980    1.0060    0.0000 C   0  0  0  0  0  0  0  0  0  0  0  0
    4.3880    0.7670    0.0000 C   0  0  0  0  0  0  0  0  0  0  0  0
    4.9900    1.3310    0.0000 C   0  0  0  0  0  0  0  0  0  0  0  0
    4.8020    2.1340    0.0000 C   0  0  0  0  0  0  0  0  0  0  0  0
    4.0130    2.3730    0.0000 C   0  0  0  0  0  0  0  0  0  0  0  0
    5.7770    1.0920    0.0000 F   0  0  0  0  0  0  0  0  0  0  0  0
    3.8250    3.1760    0.0000 Cl  0  0  0  0  0  0  0  0  0  0  0  0
   -2.4490    0.4200    0.0000 N   0  0  0  0  0  0  0  0  0  0  0  0
    2.4370    2.8500    0.0000 C   0  0  0  0  0  0  0  0  0  0  0  0
    3.0380    3.4150    0.0000 C   0  0  0  0  0  0  0  0  0  0  0  0
   -3.1640    0.8320    0.0000 C   0  0  0  0  0  0  0  0  0  0  0  0
   -3.8780    0.4200    0.0000 C   0  0  0  0  0  0  0  0  0  0  0  0
   -4.6320    0.7550    0.0000 C   0  0  0  0  0  0  0  0  0  0  0  0
   -5.1840    0.1420    0.0000 N   0  0  0  0  0  0  0  0  0  0  0  0
   -4.7710   -0.5730    0.0000 N   0  0  0  0  0  0  0  0  0  0  0  0
   -3.9640   -0.4010    0.0000 C   0  0  0  0  0  0  0  0  0  0  0  0
   -4.8030    1.5620    0.0000 C   0  0  0  0  0  0  0  0  0  0  0  0
   -4.1900    2.1140    0.0000 O   0  0  0  0  0  0  0  0  0  0  0  0
   -5.5880    1.8180    0.0000 O   0  0  0  0  0  0  0  0  0  0  0  0
   -5.1060   -1.3270    0.0000 C   0  0  0  0  0  0  0  0  0  0  0  0
   -4.6210   -1.9940    0.0000 C   0  0  0  0  0  0  0  0  0  0  0  0
   -4.9570   -2.7470    0.0000 C   0  0  0  0  0  0  0  0  0  0  0  0
   -4.4720   -3.4150    0.0000 O   0  0  0  0  0  0  0  0  0  0  0  0
   -5.7770   -2.8340    0.0000 O   0  0  0  0  0  0  0  0  0  0  0  0
  1  2  2  0  0  0  0
  1  6  1  0  0  0  0
  2  3  1  0  0  0  0
  2 25  1  0  0  0  0
  3  4  2  0  0  0  0
  4  5  1  0  0  0  0
  4  7  1  0  0  0  0
  5  6  2  0  0  0  0
  5 10  1  0  0  0  0
  7  8  1  0  0  0  0
  7 12  1  0  0  0  0
  7 13  1  6  0  0  0
  8  9  1  0  0  0  0
  8 15  1  1  0  0  0
  9 10  1  0  0  0  0
  9 11  1  1  0  0  0
 11 14  1  0  0  0  0
 11 16  1  0  0  0  0
 12 14  1  0  0  0  0
 16 17  1  6  0  0  0
 16 26  1  0  0  0  0
 17 18  1  0  0  0  0
 17 22  2  0  0  0  0
 18 19  2  0  0  0  0
 19 20  1  0  0  0  0
 20 21  2  0  0  0  0
 20 23  1  0  0  0  0
 21 22  1  0  0  0  0
 22 24  1  0  0  0  0
 25 28  1  0  0  0  0
 26 27  1  0  0  0  0
 28 29  1  0  0  0  0
 29 30  1  0  0  0  0
 29 33  2  0  0  0  0
 30 31  2  0  0  0  0
 30 34  1  0  0  0  0
 31 32  1  0  0  0  0
 32 33  1  0  0  0  0
 32 37  1  0  0  0  0
 34 35  2  0  0  0  0
 34 36  1  0  0  0  0
 37 38  1  0  0  0  0
 38 39  1  0  0  0  0
 39 40  1  0  0  0  0
 39 41  2  0  0  0  0
M  END
$$$$
20220309-structures drawed for LXR-18292-203-better than 18292(68).sdf
  MOE2020           2D

 33 36  0  0  1  0  0  0  0  0999 V2000
   -1.6210    0.1500    0.0000 C   0  0  0  0  0  0  0  0  0  0  0  0
   -1.6210   -0.6750    0.0000 C   0  0  0  0  0  0  0  0  0  0  0  0
   -0.9070   -1.0870    0.0000 C   0  0  0  0  0  0  0  0  0  0  0  0
   -0.1920   -0.6750    0.0000 C   0  0  0  0  0  0  0  0  0  0  0  0
   -0.1920    0.1500    0.0000 C   0  0  0  0  0  0  0  0  0  0  0  0
   -0.9070    0.5630    0.0000 C   0  0  0  0  0  0  0  0  0  0  0  0
    0.5220   -1.0870    0.0000 C   0  0  1  0  0  0  0  0  0  0  0  0
    1.2360   -0.6750    0.0000 C   0  0  1  0  0  0  0  0  0  0  0  0
    1.2360    0.1500    0.0000 C   0  0  1  0  0  0  0  0  0  0  0  0
    0.5220    0.5630    0.0000 C   0  0  0  0  0  0  0  0  0  0  0  0
    2.1400   -0.0210    0.0000 N   0  0  0  0  0  0  0  0  0  0  0  0
    1.6050   -1.7180    0.0000 C   0  0  0  0  0  0  0  0  0  0  0  0
    0.1090   -1.8020    0.0000 C   0  0  0  0  0  0  0  0  0  0  0  0
    2.3000   -1.3110    0.0000 C   0  0  0  0  0  0  0  0  0  0  0  0
    1.9480   -1.0860    0.0000 C   0  0  0  0  0  0  0  0  0  0  0  0
    2.7400    0.5410    0.0000 C   0  0  1  0  0  0  0  0  0  0  0  0
    3.5270    0.3020    0.0000 C   0  0  0  0  0  0  0  0  0  0  0  0
    3.7140   -0.5010    0.0000 C   0  0  0  0  0  0  0  0  0  0  0  0
    4.5040   -0.7400    0.0000 C   0  0  0  0  0  0  0  0  0  0  0  0
    5.1060   -0.1760    0.0000 C   0  0  0  0  0  0  0  0  0  0  0  0
    4.9180    0.6280    0.0000 C   0  0  0  0  0  0  0  0  0  0  0  0
    4.1280    0.8670    0.0000 C   0  0  0  0  0  0  0  0  0  0  0  0
    5.8930   -0.4140    0.0000 F   0  0  0  0  0  0  0  0  0  0  0  0
    3.9410    1.6700    0.0000 Cl  0  0  0  0  0  0  0  0  0  0  0  0
   -2.3340   -1.0860    0.0000 N   0  0  0  0  0  0  0  0  0  0  0  0
    2.5520    1.3440    0.0000 C   0  0  0  0  0  0  0  0  0  0  0  0
    3.1540    1.9080    0.0000 C   0  0  0  0  0  0  0  0  0  0  0  0
   -3.0450   -0.6750    0.0000 C   0  0  0  0  0  0  0  0  0  0  0  0
   -3.7570   -1.0860    0.0000 C   0  0  0  0  0  0  0  0  0  0  0  0
   -4.4690   -0.6750    0.0000 C   0  0  0  0  0  0  0  0  0  0  0  0
   -5.1820   -1.0860    0.0000 C   0  0  0  0  0  0  0  0  0  0  0  0
   -5.1820   -1.9080    0.0000 O   0  0  0  0  0  0  0  0  0  0  0  0
   -5.8930   -0.6750    0.0000 O   0  0  0  0  0  0  0  0  0  0  0  0
  1  2  2  0  0  0  0
  1  6  1  0  0  0  0
  2  3  1  0  0  0  0
  2 25  1  0  0  0  0
  3  4  2  0  0  0  0
  4  5  1  0  0  0  0
  4  7  1  0  0  0  0
  5  6  2  0  0  0  0
  5 10  1  0  0  0  0
  7  8  1  0  0  0  0
  7 12  1  0  0  0  0
  7 13  1  6  0  0  0
  8  9  1  0  0  0  0
  8 15  1  1  0  0  0
  9 10  1  0  0  0  0
  9 11  1  1  0  0  0
 11 14  1  0  0  0  0
 11 16  1  0  0  0  0
 12 14  1  0  0  0  0
 16 17  1  6  0  0  0
 16 26  1  0  0  0  0
 17 18  1  0  0  0  0
 17 22  2  0  0  0  0
 18 19  2  0  0  0  0
 19 20  1  0  0  0  0
 20 21  2  0  0  0  0
 20 23  1  0  0  0  0
 21 22  1  0  0  0  0
 22 24  1  0  0  0  0
 25 28  1  0  0  0  0
 26 27  1  0  0  0  0
 28 29  1  0  0  0  0
 29 30  1  0  0  0  0
 30 31  1  0  0  0  0
 31 32  2  0  0  0  0
 31 33  1  0  0  0  0
M  END
$$$$
20220309-structures drawed for LXR-18292-203-better than 18292(68).sdf
  MOE2020           2D

 37 41  0  0  1  0  0  0  0  0999 V2000
   -1.9770    0.3560    0.0000 C   0  0  0  0  0  0  0  0  0  0  0  0
   -1.9770   -0.4700    0.0000 C   0  0  0  0  0  0  0  0  0  0  0  0
   -1.2630   -0.8820    0.0000 C   0  0  0  0  0  0  0  0  0  0  0  0
   -0.5480   -0.4700    0.0000 C   0  0  0  0  0  0  0  0  0  0  0  0
   -0.5480    0.3560    0.0000 C   0  0  0  0  0  0  0  0  0  0  0  0
   -1.2630    0.7680    0.0000 C   0  0  0  0  0  0  0  0  0  0  0  0
    0.1660   -0.8820    0.0000 C   0  0  1  0  0  0  0  0  0  0  0  0
    0.8810   -0.4700    0.0000 C   0  0  1  0  0  0  0  0  0  0  0  0
    0.8810    0.3560    0.0000 C   0  0  1  0  0  0  0  0  0  0  0  0
    0.1660    0.7680    0.0000 C   0  0  0  0  0  0  0  0  0  0  0  0
    1.7840    0.1840    0.0000 N   0  0  0  0  0  0  0  0  0  0  0  0
    1.2500   -1.5120    0.0000 C   0  0  0  0  0  0  0  0  0  0  0  0
   -0.2460   -1.5960    0.0000 C   0  0  0  0  0  0  0  0  0  0  0  0
    1.9440   -1.1050    0.0000 C   0  0  0  0  0  0  0  0  0  0  0  0
    1.5930   -0.8800    0.0000 C   0  0  0  0  0  0  0  0  0  0  0  0
    2.3840    0.7460    0.0000 C   0  0  1  0  0  0  0  0  0  0  0  0
    3.1710    0.5080    0.0000 C   0  0  0  0  0  0  0  0  0  0  0  0
    3.3580   -0.2950    0.0000 C   0  0  0  0  0  0  0  0  0  0  0  0
    4.1480   -0.5340    0.0000 C   0  0  0  0  0  0  0  0  0  0  0  0
    4.7500    0.0300    0.0000 C   0  0  0  0  0  0  0  0  0  0  0  0
    4.5620    0.8330    0.0000 C   0  0  0  0  0  0  0  0  0  0  0  0
    3.7730    1.0720    0.0000 C   0  0  0  0  0  0  0  0  0  0  0  0
    5.5370   -0.2090    0.0000 F   0  0  0  0  0  0  0  0  0  0  0  0
    3.5850    1.8750    0.0000 Cl  0  0  0  0  0  0  0  0  0  0  0  0
   -2.6890   -0.8810    0.0000 N   0  0  0  0  0  0  0  0  0  0  0  0
    2.1970    1.5500    0.0000 C   0  0  0  0  0  0  0  0  0  0  0  0
    2.7980    2.1140    0.0000 C   0  0  0  0  0  0  0  0  0  0  0  0
   -3.4010   -0.4700    0.0000 C   0  0  0  0  0  0  0  0  0  0  0  0
   -4.1130   -0.8810    0.0000 C   0  0  0  0  0  0  0  0  0  0  0  0
   -4.8250   -0.4700    0.0000 C   0  0  0  0  0  0  0  0  0  0  0  0
   -5.5370   -0.8810    0.0000 C   0  0  0  0  0  0  0  0  0  0  0  0
   -4.1130   -1.7030    0.0000 C   0  0  0  0  0  0  0  0  0  0  0  0
   -4.8250    0.3530    0.0000 C   0  0  0  0  0  0  0  0  0  0  0  0
   -4.1130    0.7630    0.0000 O   0  0  0  0  0  0  0  0  0  0  0  0
   -5.5370    0.7630    0.0000 O   0  0  0  0  0  0  0  0  0  0  0  0
   -5.5370   -1.7030    0.0000 C   0  0  0  0  0  0  0  0  0  0  0  0
   -4.8250   -2.1140    0.0000 C   0  0  0  0  0  0  0  0  0  0  0  0
  1  2  2  0  0  0  0
  1  6  1  0  0  0  0
  2  3  1  0  0  0  0
  2 25  1  0  0  0  0
  3  4  2  0  0  0  0
  4  5  1  0  0  0  0
  4  7  1  0  0  0  0
  5  6  2  0  0  0  0
  5 10  1  0  0  0  0
  7  8  1  0  0  0  0
  7 12  1  0  0  0  0
  7 13  1  6  0  0  0
  8  9  1  0  0  0  0
  8 15  1  1  0  0  0
  9 10  1  0  0  0  0
  9 11  1  1  0  0  0
 11 14  1  0  0  0  0
 11 16  1  0  0  0  0
 12 14  1  0  0  0  0
 16 17  1  6  0  0  0
 16 26  1  0  0  0  0
 17 18  1  0  0  0  0
 17 22  2  0  0  0  0
 18 19  2  0  0  0  0
 19 20  1  0  0  0  0
 20 21  2  0  0  0  0
 20 23  1  0  0  0  0
 21 22  1  0  0  0  0
 22 24  1  0  0  0  0
 25 28  1  0  0  0  0
 26 27  1  0  0  0  0
 28 29  1  0  0  0  0
 29 30  1  0  0  0  0
 29 32  2  0  0  0  0
 30 31  2  0  0  0  0
 30 33  1  0  0  0  0
 31 36  1  0  0  0  0
 32 37  1  0  0  0  0
 33 34  2  0  0  0  0
 33 35  1  0  0  0  0
 36 37  2  0  0  0  0
M  END
$$$$
20220309-structures drawed for LXR-18292-203-better than 18292(68).sdf
  MOE2020           2D

 38 42  0  0  1  0  0  0  0  0999 V2000
   -1.1480    0.2330    0.0000 C   0  0  0  0  0  0  0  0  0  0  0  0
   -1.1480   -0.5920    0.0000 C   0  0  0  0  0  0  0  0  0  0  0  0
   -0.4340   -1.0050    0.0000 C   0  0  0  0  0  0  0  0  0  0  0  0
    0.2800   -0.5920    0.0000 C   0  0  0  0  0  0  0  0  0  0  0  0
    0.2800    0.2330    0.0000 C   0  0  0  0  0  0  0  0  0  0  0  0
   -0.4340    0.6450    0.0000 C   0  0  0  0  0  0  0  0  0  0  0  0
    0.9950   -1.0050    0.0000 C   0  0  1  0  0  0  0  0  0  0  0  0
    1.7090   -0.5920    0.0000 C   0  0  1  0  0  0  0  0  0  0  0  0
    1.7090    0.2330    0.0000 C   0  0  1  0  0  0  0  0  0  0  0  0
    0.9950    0.6450    0.0000 C   0  0  0  0  0  0  0  0  0  0  0  0
    2.6130    0.0620    0.0000 N   0  0  0  0  0  0  0  0  0  0  0  0
    2.0780   -1.6350    0.0000 C   0  0  0  0  0  0  0  0  0  0  0  0
    0.5820   -1.7190    0.0000 C   0  0  0  0  0  0  0  0  0  0  0  0
    2.7730   -1.2280    0.0000 C   0  0  0  0  0  0  0  0  0  0  0  0
    2.4210   -1.0030    0.0000 C   0  0  0  0  0  0  0  0  0  0  0  0
    3.2130    0.6240    0.0000 C   0  0  1  0  0  0  0  0  0  0  0  0
    4.0000    0.3850    0.0000 C   0  0  0  0  0  0  0  0  0  0  0  0
    4.1870   -0.4180    0.0000 C   0  0  0  0  0  0  0  0  0  0  0  0
    4.9770   -0.6570    0.0000 C   0  0  0  0  0  0  0  0  0  0  0  0
    5.5790   -0.0930    0.0000 C   0  0  0  0  0  0  0  0  0  0  0  0
    5.3910    0.7110    0.0000 C   0  0  0  0  0  0  0  0  0  0  0  0
    4.6010    0.9500    0.0000 C   0  0  0  0  0  0  0  0  0  0  0  0
    6.3660   -0.3310    0.0000 F   0  0  0  0  0  0  0  0  0  0  0  0
    4.4140    1.7530    0.0000 Cl  0  0  0  0  0  0  0  0  0  0  0  0
   -1.8600   -1.0040    0.0000 N   0  0  0  0  0  0  0  0  0  0  0  0
    3.0250    1.4270    0.0000 C   0  0  0  0  0  0  0  0  0  0  0  0
    3.6270    1.9910    0.0000 C   0  0  0  0  0  0  0  0  0  0  0  0
   -2.5750   -0.5920    0.0000 C   0  0  0  0  0  0  0  0  0  0  0  0
   -3.2860   -1.0020    0.0000 C   0  0  0  0  0  0  0  0  0  0  0  0
   -4.0380   -0.6680    0.0000 C   0  0  0  0  0  0  0  0  0  0  0  0
   -4.5880   -1.2790    0.0000 N   0  0  0  0  0  0  0  0  0  0  0  0
   -3.3720   -1.8200    0.0000 N   0  0  0  0  0  0  0  0  0  0  0  0
   -4.2090    0.1360    0.0000 C   0  0  0  0  0  0  0  0  0  0  0  0
   -3.5980    0.6860    0.0000 O   0  0  0  0  0  0  0  0  0  0  0  0
   -4.9900    0.3900    0.0000 O   0  0  0  0  0  0  0  0  0  0  0  0
   -5.5720   -0.1910    0.0000 C   0  0  0  0  0  0  0  0  0  0  0  0
   -6.3660    0.0220    0.0000 C   0  0  0  0  0  0  0  0  0  0  0  0
   -4.1770   -1.9910    0.0000 N   0  0  0  0  0  0  0  0  0  0  0  0
  1  2  2  0  0  0  0
  1  6  1  0  0  0  0
  2  3  1  0  0  0  0
  2 25  1  0  0  0  0
  3  4  2  0  0  0  0
  4  5  1  0  0  0  0
  4  7  1  0  0  0  0
  5  6  2  0  0  0  0
  5 10  1  0  0  0  0
  7  8  1  0  0  0  0
  7 12  1  0  0  0  0
  7 13  1  6  0  0  0
  8  9  1  0  0  0  0
  8 15  1  1  0  0  0
  9 10  1  0  0  0  0
  9 11  1  1  0  0  0
 11 14  1  0  0  0  0
 11 16  1  0  0  0  0
 12 14  1  0  0  0  0
 16 17  1  6  0  0  0
 16 26  1  0  0  0  0
 17 18  1  0  0  0  0
 17 22  2  0  0  0  0
 18 19  2  0  0  0  0
 19 20  1  0  0  0  0
 20 21  2  0  0  0  0
 20 23  1  0  0  0  0
 21 22  1  0  0  0  0
 22 24  1  0  0  0  0
 25 28  1  0  0  0  0
 26 27  1  0  0  0  0
 28 29  1  0  0  0  0
 29 30  2  0  0  0  0
 29 32  1  0  0  0  0
 30 31  1  0  0  0  0
 30 33  1  0  0  0  0
 31 38  2  0  0  0  0
 32 38  1  0  0  0  0
 33 34  2  0  0  0  0
 33 35  1  0  0  0  0
 35 36  1  0  0  0  0
 36 37  1  0  0  0  0
M  END
$$$$
